# CIF file generated by openbabel 3.1.1, see https://openbabel.org
data_I
_chemical_name_common '3.01-96.aims'
_cell_length_a 39.9267
_cell_length_b 39.9267
_cell_length_c 39.9267
_cell_angle_alpha 90
_cell_angle_beta 90
_cell_angle_gamma 90
loop_
    _atom_site_label
    _atom_site_type_symbol
    _atom_site_fract_x
    _atom_site_fract_y
    _atom_site_fract_z
    _atom_site_occupancy
    Si0      Si       0.01644    0.08049    0.08460    1.000
    N1       N        0.03269    0.04662    0.10546    1.000
    Si2      Si       0.02285    0.12699    0.01899    1.000
    N3       N        0.03753    0.10015    0.05309    1.000
    N4       N        0.01745    0.11611    0.11245    1.000
    N5       N        0.03570    0.18587    0.09704    1.000
    N6       N        0.01615    0.23699    0.04105    1.000
    N7       N        0.03334    0.16879    0.02243    1.000
    Si8      Si       0.00778    0.21445    0.07728    1.000
    Si9      Si       0.00312    0.15741    0.10924    1.000
    Si10     Si       0.01363    0.20476    0.00759    1.000
    N11      N        0.00187    0.24094    0.11230    1.000
    N12      N        0.02949    0.07725    0.23348    1.000
    Si13     Si       0.01156    0.02856    0.14018    1.000
    Si14     Si       0.02036    0.08121    0.19210    1.000
    N15      N        0.99677    0.04971    0.17384    1.000
    N16      N        0.99466    0.11593    0.18892    1.000
    N17      N        0.99017    0.18665    0.21598    1.000
    N18      N        0.99685    0.17288    0.15032    1.000
    Si19     Si       0.00687    0.15521    0.18908    1.000
    Si20     Si       0.00444    0.21687    0.15146    1.000
    N21      N        0.04562    0.15761    0.20851    1.000
    N22      N        0.03080    0.02873    0.27884    1.000
    Si23     Si       0.01126    0.09530    0.26846    1.000
    N24      N        0.03684    0.10511    0.30141    1.000
    N25      N        0.99947    0.09618    0.35283    1.000
    Si26     Si       0.04360    0.10459    0.35051    1.000
    Si27     Si       0.98938    0.03117    0.29609    1.000
    N28      N        0.00165    0.13752    0.26184    1.000
    Si29     Si       0.01679    0.14678    0.30558    1.000
    Si30     Si       0.03158    0.21781    0.30530    1.000
    N31      N        0.03331    0.14785    0.35029    1.000
    N32      N        0.04090    0.17894    0.28476    1.000
    N33      N        0.04376    0.21770    0.34568    1.000
    Si34     Si       0.02150    0.17215    0.24398    1.000
    N35      N        0.03529    0.02049    0.37498    1.000
    N36      N        0.03150    0.05479    0.44630    1.000
    Si37     Si       0.03072    0.05514    0.40053    1.000
    Si38     Si       0.04848    0.17983    0.37376    1.000
    N39      N        0.01890    0.23850    0.45647    1.000
    Si40     Si       0.04287    0.20287    0.44189    1.000
    N41      N        0.03507    0.17428    0.47558    1.000
    N42      N        0.02214    0.18834    0.40704    1.000
    Si43     Si       0.99751    0.25543    0.42267    1.000
    Si44     Si       0.99815    0.17435    0.49504    1.000
    N45      N        0.02241    0.03671    0.55453    1.000
    N46      N        0.00541    0.09909    0.57272    1.000
    N47      N        0.03444    0.08297    0.50485    1.000
    Si48     Si       0.99378    0.09740    0.50317    1.000
    Si49     Si       0.99791    0.09944    0.61642    1.000
    Si50     Si       0.01798    0.13566    0.55281    1.000
    N51      N        0.99412    0.13877    0.51619    1.000
    Si52     Si       0.00723    0.20701    0.56275    1.000
    N53      N        0.00160    0.16669    0.57872    1.000
    N54      N        0.00001    0.20981    0.51856    1.000
    Si55     Si       0.00465    0.24629    0.49704    1.000
    Si56     Si       0.04633    0.09580    0.65665    1.000
    Si57     Si       0.02287    0.02057    0.72331    1.000
    Si58     Si       0.99616    0.11033    0.71127    1.000
    N59      N        0.03753    0.09840    0.69939    1.000
    N60      N        0.01377    0.06861    0.64303    1.000
    Si61     Si       0.98929    0.03288    0.63667    1.000
    N62      N        0.02489    0.12962    0.63758    1.000
    N63      N        0.99484    0.21268    0.74143    1.000
    Si64     Si       0.01404    0.17784    0.72259    1.000
    N65      N        0.04147    0.25496    0.67291    1.000
    N66      N        0.03203    0.18137    0.68429    1.000
    Si67     Si       0.02277    0.17294    0.64081    1.000
    Si68     Si       0.04474    0.25280    0.62905    1.000
    N69      N        0.04464    0.20937    0.62753    1.000
    Si70     Si       0.03104    0.11757    0.77148    1.000
    N71      N        0.99600    0.09631    0.75294    1.000
    N72      N        0.00963    0.11832    0.80878    1.000
    N73      N        0.99171    0.04767    0.80045    1.000
    N74      N        0.01857    0.04788    0.87105    1.000
    Si75     Si       0.00808    0.21692    0.78280    1.000
    Si76     Si       0.01199    0.14791    0.84159    1.000
    Si77     Si       0.99410    0.24055    0.85001    1.000
    N78      N        0.99582    0.18156    0.80536    1.000
    N79      N        0.03704    0.15578    0.75337    1.000
    N80      N        0.04137    0.24530    0.77927    1.000
    N81      N        0.01127    0.11577    0.87822    1.000
    Si82     Si       0.03830    0.01380    0.88843    1.000
    Si83     Si       0.01863    0.07509    0.96752    1.000
    Si84     Si       0.03733    0.08299    0.88905    1.000
    N85      N        0.01248    0.03457    0.98054    1.000
    N86      N        0.04350    0.10520    0.98798    1.000
    N87      N        0.03893    0.06904    0.93034    1.000
    N88      N        0.00823    0.20677    0.87563    1.000
    N89      N        0.04578    0.22463    0.98657    1.000
    N90      N        0.01224    0.31020    0.01411    1.000
    Si91     Si       0.02338    0.34577    0.03684    1.000
    Si92     Si       0.99476    0.27538    0.03340    1.000
    Si93     Si       0.99746    0.28438    0.11013    1.000
    N94      N        0.98580    0.36566    0.04309    1.000
    N95      N        0.03314    0.43716    0.04641    1.000
    N96      N        0.01434    0.47354    0.10363    1.000
    Si97     Si       0.99111    0.44310    0.03309    1.000
    N98      N        0.03154    0.30503    0.12126    1.000
    Si99     Si       0.99708    0.30544    0.23894    1.000
    N100     N        0.01540    0.29285    0.19974    1.000
    Si101    Si       0.99856    0.36949    0.20546    1.000
    Si102    Si       0.02575    0.31589    0.16161    1.000
    N103     N        0.01007    0.35667    0.16643    1.000
    N104     N        0.98926    0.34821    0.24329    1.000
    Si105    Si       0.00798    0.50505    0.22482    1.000
    Si106    Si       0.00081    0.44016    0.19204    1.000
    N107     N        0.03838    0.37877    0.22174    1.000
    N108     N        0.02634    0.42217    0.16233    1.000
    N109     N        0.01683    0.46224    0.22347    1.000
    Si110    Si       0.02309    0.38719    0.13696    1.000
    Si111    Si       0.03360    0.28417    0.28867    1.000
    N112     N        0.03413    0.29339    0.33168    1.000
    Si113    Si       0.02514    0.36989    0.26595    1.000
    Si114    Si       0.99954    0.31938    0.34035    1.000
    N115     N        0.04229    0.30971    0.25465    1.000
    N116     N        0.99204    0.28427    0.27686    1.000
    N117     N        0.99907    0.34647    0.30641    1.000
    Si118    Si       0.03461    0.44219    0.25612    1.000
    N119     N        0.00778    0.41279    0.27388    1.000
    N120     N        0.04639    0.47100    0.28821    1.000
    N121     N        0.99207    0.40278    0.36853    1.000
    N122     N        0.00266    0.37163    0.43943    1.000
    Si123    Si       0.02443    0.31199    0.40942    1.000
    N124     N        0.00672    0.33708    0.37941    1.000
    N125     N        0.02441    0.27018    0.39224    1.000
    N126     N        0.99529    0.33067    0.49365    1.000
    N127     N        0.99244    0.29722    0.43557    1.000
    Si128    Si       0.03170    0.41840    0.37184    1.000
    Si129    Si       0.00870    0.44034    0.48620    1.000
    Si130    Si       0.03988    0.39311    0.44180    1.000
    N131     N        0.03954    0.43520    0.45664    1.000
    N132     N        0.02830    0.45610    0.39719    1.000
    N133     N        0.02214    0.27485    0.52429    1.000
    N134     N        0.02198    0.35874    0.60549    1.000
    Si135    Si       0.03172    0.31816    0.51534    1.000
    N136     N        0.01829    0.27940    0.60932    1.000
    N137     N        0.03902    0.35355    0.54276    1.000
    Si138    Si       0.01991    0.46037    0.56040    1.000
    Si139    Si       0.02676    0.39437    0.53426    1.000
    N140     N        0.01115    0.46869    0.51655    1.000
    N141     N        0.01014    0.41745    0.56714    1.000
    Si142    Si       0.99507    0.39413    0.60191    1.000
    N143     N        0.00541    0.39985    0.49981    1.000
    Si144    Si       0.02076    0.32030    0.62616    1.000
    N145     N        0.01249    0.32288    0.71400    1.000
    Si146    Si       0.03893    0.29365    0.69131    1.000
    Si147    Si       0.98629    0.34710    0.68806    1.000
    N148     N        0.00079    0.46129    0.69224    1.000
    N149     N        0.00235    0.41929    0.63389    1.000
    Si150    Si       0.99569    0.49614    0.66648    1.000
    Si151    Si       0.00796    0.42104    0.67532    1.000
    Si152    Si       0.99312    0.45863    0.73480    1.000
    N153     N        0.03388    0.34499    0.84001    1.000
    Si154    Si       0.01806    0.27601    0.80063    1.000
    N155     N        0.02534    0.31105    0.77943    1.000
    Si156    Si       0.02905    0.35224    0.79878    1.000
    N157     N        0.02955    0.26711    0.84147    1.000
    Si158    Si       0.99478    0.35266    0.85748    1.000
    N159     N        0.99191    0.37599    0.79598    1.000
    Si160    Si       0.00859    0.47883    0.84301    1.000
    N161     N        0.01547    0.44316    0.81672    1.000
    N162     N        0.02842    0.43967    0.75100    1.000
    N163     N        0.99209    0.39607    0.86157    1.000
    N164     N        0.04003    0.50924    0.84574    1.000
    Si165    Si       0.04781    0.45112    0.78715    1.000
    Si166    Si       0.99916    0.29259    0.90452    1.000
    Si167    Si       0.00755    0.32113    0.97311    1.000
    N168     N        0.04154    0.28203    0.90471    1.000
    N169     N        0.04552    0.33030    0.95751    1.000
    N170     N        0.98853    0.33377    0.89516    1.000
    Si171    Si       0.00307    0.39849    0.95477    1.000
    N172     N        0.99075    0.42092    0.99227    1.000
    Si173    Si       0.02763    0.49009    0.91291    1.000
    N174     N        0.01022    0.46368    0.88355    1.000
    N175     N        0.03100    0.40302    0.92257    1.000
    Si176    Si       0.00194    0.42138    0.89520    1.000
    Si177    Si       0.01681    0.50538    0.98591    1.000
    N178     N        0.00789    0.48149    0.95086    1.000
    Si179    Si       0.02627    0.56540    0.08153    1.000
    N180     N        0.00049    0.53182    0.06466    1.000
    N181     N        0.03319    0.54204    0.11725    1.000
    N182     N        0.99485    0.59467    0.08222    1.000
    Si183    Si       0.99792    0.62758    0.10986    1.000
    Si184    Si       0.00143    0.51464    0.10392    1.000
    N185     N        0.04004    0.63139    0.11815    1.000
    Si186    Si       0.02732    0.64830    0.00414    1.000
    N187     N        0.00819    0.72948    0.09066    1.000
    N188     N        0.02508    0.75251    0.02133    1.000
    Si189    Si       0.04395    0.71915    0.00162    1.000
    N190     N        0.01120    0.68817    0.99983    1.000
    N191     N        0.04640    0.63555    0.04103    1.000
    N192     N        0.01440    0.52049    0.18368    1.000
    Si193    Si       0.04541    0.52703    0.15576    1.000
    N194     N        0.02311    0.63080    0.19295    1.000
    N195     N        0.01752    0.69253    0.23584    1.000
    Si196    Si       0.04146    0.66360    0.21582    1.000
    N197     N        0.03747    0.53019    0.32389    1.000
    N198     N        0.01547    0.52868    0.25753    1.000
    N199     N        0.01346    0.62450    0.34090    1.000
    Si200    Si       0.99997    0.54328    0.34227    1.000
    Si201    Si       0.99343    0.61552    0.30448    1.000
    N202     N        0.01267    0.63529    0.26938    1.000
    N203     N        0.98992    0.57242    0.30801    1.000
    N204     N        0.00604    0.74860    0.27883    1.000
    Si205    Si       0.03479    0.73017    0.35324    1.000
    N206     N        0.02219    0.68973    0.36394    1.000
    Si207    Si       0.04397    0.65573    0.34796    1.000
    Si208    Si       0.03471    0.72835    0.25225    1.000
    N209     N        0.00170    0.75593    0.34205    1.000
    Si210    Si       0.03899    0.60541    0.43473    1.000
    N211     N        0.01084    0.62631    0.40963    1.000
    Si212    Si       0.99681    0.55033    0.41987    1.000
    N213     N        0.03280    0.56314    0.44000    1.000
    N214     N        0.99953    0.56703    0.37858    1.000
    N215     N        0.02938    0.63508    0.46649    1.000
    N216     N        0.00761    0.73731    0.45871    1.000
    Si217    Si       0.99480    0.65033    0.44382    1.000
    N218     N        0.03542    0.59817    0.55205    1.000
    Si219    Si       0.99771    0.61861    0.55287    1.000
    Si220    Si       0.00569    0.69246    0.52060    1.000
    N221     N        0.00709    0.66444    0.55378    1.000
    Si222    Si       0.03297    0.67498    0.58946    1.000
    N223     N        0.01936    0.71318    0.61166    1.000
    N224     N        0.02511    0.64076    0.61505    1.000
    N225     N        0.04705    0.69924    0.50508    1.000
    Si226    Si       0.03610    0.60828    0.64239    1.000
    Si227    Si       0.00394    0.53525    0.72818    1.000
    N228     N        0.99465    0.59792    0.64988    1.000
    N229     N        0.01902    0.51258    0.63305    1.000
    N230     N        0.04579    0.54221    0.73655    1.000
    N231     N        0.04676    0.62849    0.67856    1.000
    N232     N        0.98880    0.53271    0.68839    1.000
    Si233    Si       0.03491    0.66635    0.69868    1.000
    N234     N        0.00214    0.65875    0.72624    1.000
    N235     N        0.02991    0.70558    0.67739    1.000
    N236     N        0.00266    0.74429    0.71635    1.000
    Si237    Si       0.04120    0.72868    0.71671    1.000
    Si238    Si       0.03053    0.55119    0.84497    1.000
    N239     N        0.02841    0.55727    0.80095    1.000
    N240     N        0.02323    0.62914    0.85816    1.000
    Si241    Si       0.98963    0.57028    0.78597    1.000
    Si242    Si       0.02145    0.67705    0.76263    1.000
    N243     N        0.99817    0.70521    0.78392    1.000
    N244     N        0.03793    0.65052    0.79246    1.000
    N245     N        0.99258    0.75613    0.84824    1.000
    N246     N        0.00199    0.61968    0.98071    1.000
    N247     N        0.00307    0.54519    0.98211    1.000
    N248     N        0.02306    0.53366    0.90846    1.000
    Si249    Si       0.01929    0.58267    0.96227    1.000
    Si250    Si       0.03123    0.63110    0.90180    1.000
    Si251    Si       0.01956    0.73483    0.93394    1.000
    N252     N        0.99324    0.64660    0.91743    1.000
    N253     N        0.02803    0.71154    0.89892    1.000
    Si254    Si       0.99077    0.68699    0.90365    1.000
    Si255    Si       0.00435    0.83549    0.08227    1.000
    N256     N        0.02798    0.80013    0.07170    1.000
    N257     N        0.00671    0.87422    0.06270    1.000
    Si258    Si       0.00776    0.76198    0.05982    1.000
    N259     N        0.02067    0.84095    0.12308    1.000
    Si260    Si       0.01112    0.96383    0.06639    1.000
    N261     N        0.03194    0.93628    0.03837    1.000
    N262     N        0.99796    0.99959    0.04672    1.000
    Si263    Si       0.02115    0.00346    0.00951    1.000
    N264     N        0.03973    0.97529    0.09565    1.000
    Si265    Si       0.04276    0.89574    0.05360    1.000
    Si266    Si       0.01247    0.93267    0.99818    1.000
    N267     N        0.99320    0.81066    0.22591    1.000
    Si268    Si       0.02362    0.83112    0.20352    1.000
    N269     N        0.00944    0.86641    0.18313    1.000
    Si270    Si       0.03358    0.76347    0.17988    1.000
    N271     N        0.04531    0.80503    0.17472    1.000
    N272     N        0.03702    0.76336    0.22514    1.000
    Si273    Si       0.99102    0.76715    0.22717    1.000
    N274     N        0.99107    0.76052    0.18263    1.000
    N275     N        0.04595    0.97049    0.20849    1.000
    N276     N        0.02472    0.92156    0.14599    1.000
    Si277    Si       0.04206    0.89363    0.17697    1.000
    N278     N        0.02298    0.81729    0.34258    1.000
    Si279    Si       0.01002    0.78173    0.30695    1.000
    Si280    Si       0.99724    0.84622    0.32271    1.000
    N281     N        0.02197    0.87684    0.30153    1.000
    N282     N        0.02186    0.97509    0.32271    1.000
    N283     N        0.01748    0.93687    0.26321    1.000
    Si284    Si       0.99755    0.89970    0.27586    1.000
    Si285    Si       0.01879    0.98128    0.36603    1.000
    Si286    Si       0.99416    0.96144    0.29217    1.000
    N287     N        0.00775    0.79929    0.41532    1.000
    N288     N        0.03438    0.86805    0.44091    1.000
    N289     N        0.02731    0.80490    0.47467    1.000
    Si290    Si       0.99745    0.77773    0.45363    1.000
    Si291    Si       0.03265    0.79426    0.38019    1.000
    Si292    Si       0.03809    0.82625    0.43422    1.000
    Si293    Si       0.99328    0.87689    0.44493    1.000
    N294     N        0.02779    0.94263    0.38409    1.000
    N295     N        0.01554    0.97903    0.44736    1.000
    N296     N        0.02371    0.82978    0.59613    1.000
    Si297    Si       0.01052    0.82853    0.50608    1.000
    N298     N        0.03922    0.84552    0.53273    1.000
    Si299    Si       0.00434    0.76476    0.54746    1.000
    N300     N        0.04526    0.77658    0.54086    1.000
    Si301    Si       0.03674    0.86581    0.61917    1.000
    Si302    Si       0.02309    0.88270    0.55132    1.000
    Si303    Si       0.01107    0.95112    0.52267    1.000
    N304     N        0.01623    0.96138    0.56659    1.000
    N305     N        0.03229    0.89754    0.59073    1.000
    Si306    Si       0.01308    0.93580    0.60348    1.000
    Si307    Si       0.02956    0.00148    0.57936    1.000
    N308     N        0.03615    0.91355    0.52337    1.000
    N309     N        0.04051    0.97637    0.50512    1.000
    Si310    Si       0.99517    0.83953    0.67070    1.000
    N311     N        0.01967    0.80563    0.68602    1.000
    N312     N        0.00625    0.87725    0.64839    1.000
    Si313    Si       0.99309    0.78654    0.71833    1.000
    N314     N        0.02741    0.94094    0.64570    1.000
    N315     N        0.01988    0.00433    0.62196    1.000
    N316     N        0.01234    0.99608    0.68768    1.000
    N317     N        0.01316    0.92485    0.71244    1.000
    Si318    Si       0.02552    0.90804    0.67453    1.000
    Si319    Si       0.03710    0.98201    0.65618    1.000
    Si320    Si       0.02042    0.78659    0.85010    1.000
    N321     N        0.01114    0.86668    0.77798    1.000
    Si322    Si       0.00712    0.82615    0.79452    1.000
    N323     N        0.03724    0.80565    0.81532    1.000
    N324     N        0.99748    0.80973    0.75509    1.000
    Si325    Si       0.03750    0.89900    0.79268    1.000
    N326     N        0.01966    0.99776    0.75969    1.000
    N327     N        0.03875    0.94279    0.80056    1.000
    N328     N        0.01203    0.94314    0.86245    1.000
    N329     N        0.04566    0.88569    0.83648    1.000
    N330     N        0.00462    0.81638    0.87627    1.000
    N331     N        0.01691    0.77630    0.93477    1.000
    Si332    Si       0.02513    0.81475    0.91449    1.000
    N333     N        0.00060    0.83712    0.94190    1.000
    Si334    Si       0.00520    0.88087    0.94175    1.000
    Si335    Si       0.01996    0.89980    0.86861    1.000
    N336     N        0.02514    0.89656    0.97835    1.000
    N337     N        0.00715    0.99221    0.91150    1.000
    N338     N        0.03367    0.88998    0.91007    1.000
    Si339    Si       0.99471    0.00355    0.95128    1.000
    N340     N        0.00633    0.97115    0.98079    1.000
    N341     N        0.08518    0.09812    0.10323    1.000
    Si342    Si       0.07935    0.10526    0.06043    1.000
    N343     N        0.09786    0.02600    0.09284    1.000
    Si344    Si       0.05984    0.01137    0.10726    1.000
    N345     N        0.10602    0.09122    0.02990    1.000
    Si346    Si       0.05823    0.24568    0.02399    1.000
    Si347    Si       0.07311    0.17600    0.03265    1.000
    N348     N        0.08112    0.21683    0.04725    1.000
    N349     N        0.08491    0.14857    0.06390    1.000
    N350     N        0.10292    0.19392    0.11041    1.000
    Si351    Si       0.09937    0.14922    0.10539    1.000
    Si352    Si       0.09472    0.07755    0.18589    1.000
    N353     N        0.09029    0.04749    0.21695    1.000
    Si354    Si       0.05456    0.10946    0.13441    1.000
    N355     N        0.05576    0.08713    0.16968    1.000
    N356     N        0.04868    0.00857    0.15162    1.000
    N357     N        0.04715    0.21768    0.15979    1.000
    Si358    Si       0.08206    0.15149    0.18772    1.000
    N359     N        0.07156    0.14955    0.14498    1.000
    Si360    Si       0.08262    0.22696    0.18319    1.000
    N361     N        0.07226    0.25338    0.21844    1.000
    Si362    Si       0.06378    0.19155    0.12895    1.000
    Si363    Si       0.07889    0.09970    0.29758    1.000
    N364     N        0.08862    0.10578    0.33765    1.000
    N365     N        0.08754    0.06235    0.27708    1.000
    Si366    Si       0.05827    0.04769    0.24905    1.000
    N367     N        0.09511    0.13173    0.27040    1.000
    Si368    Si       0.08894    0.24225    0.25741    1.000
    Si369    Si       0.08703    0.17375    0.28441    1.000
    N370     N        0.05327    0.24662    0.28414    1.000
    N371     N        0.09949    0.19923    0.25441    1.000
    Si372    Si       0.04660    0.25832    0.35811    1.000
    Si373    Si       0.10424    0.02365    0.48103    1.000
    Si374    Si       0.05884    0.07988    0.46802    1.000
    N375     N        0.07103    0.12158    0.46048    1.000
    N376     N        0.09633    0.06002    0.45903    1.000
    Si377    Si       0.07625    0.12164    0.41601    1.000
    N378     N        0.05160    0.09235    0.39232    1.000
    Si379    Si       0.10158    0.23616    0.46794    1.000
    N380     N        0.08040    0.16102    0.39854    1.000
    N381     N        0.08261    0.21537    0.43636    1.000
    Si382    Si       0.06782    0.15103    0.49114    1.000
    N383     N        0.08029    0.08223    0.56074    1.000
    N384     N        0.08064    0.02703    0.51547    1.000
    Si385    Si       0.05557    0.05933    0.53344    1.000
    Si386    Si       0.08516    0.12411    0.56891    1.000
    N387     N        0.05968    0.13984    0.53605    1.000
    N388     N        0.07878    0.15697    0.59682    1.000
    Si389    Si       0.07493    0.20175    0.59529    1.000
    N390     N        0.08363    0.24224    0.50866    1.000
    Si391    Si       0.05671    0.25368    0.54151    1.000
    N392     N        0.04903    0.21821    0.56387    1.000
    N393     N        0.09803    0.17891    0.50090    1.000
    N394     N        0.08740    0.08529    0.64518    1.000
    N395     N        0.06361    0.03200    0.72022    1.000
    Si396    Si       0.07088    0.07644    0.72170    1.000
    Si397    Si       0.05933    0.21692    0.68378    1.000
    N398     N        0.06391    0.21469    0.72677    1.000
    N399     N        0.10080    0.21547    0.66963    1.000
    N400     N        0.06429    0.09018    0.76448    1.000
    N401     N        0.07678    0.05784    0.82287    1.000
    Si402    Si       0.09277    0.08797    0.79622    1.000
    Si403    Si       0.08308    0.01729    0.82713    1.000
    N404     N        0.09454    0.12029    0.82420    1.000
    N405     N        0.09166    0.18528    0.79110    1.000
    Si406    Si       0.08859    0.16206    0.82912    1.000
    N407     N        0.05024    0.16570    0.85023    1.000
    Si408    Si       0.07186    0.25052    0.74906    1.000
    Si409    Si       0.07470    0.17867    0.75148    1.000
    N410     N        0.08003    0.07961    0.88607    1.000
    Si411    Si       0.08353    0.05484    0.92924    1.000
    N412     N        0.08513    0.04865    0.97592    1.000
    N413     N        0.07364    0.01565    0.91373    1.000
    Si414    Si       0.08602    0.08984    0.98987    1.000
    Si415    Si       0.09561    0.01249    0.99485    1.000
    N416     N        0.07679    0.22738    0.86636    1.000
    N417     N        0.06271    0.18987    0.92439    1.000
    Si418    Si       0.07641    0.20275    0.96393    1.000
    N419     N        0.09378    0.17502    0.99338    1.000
    Si420    Si       0.04950    0.19871    0.88364    1.000
    N421     N        0.10793    0.23036    0.96067    1.000
    Si422    Si       0.06265    0.32635    0.10137    1.000
    Si423    Si       0.09138    0.31555    0.03168    1.000
    N424     N        0.05909    0.32646    0.05919    1.000
    N425     N        0.08598    0.27836    0.01099    1.000
    N426     N        0.09921    0.30660    0.11518    1.000
    N427     N        0.05554    0.36830    0.11402    1.000
    N428     N        0.10381    0.34368    0.00229    1.000
    N429     N        0.04431    0.37464    0.01099    1.000
    N430     N        0.09344    0.39267    0.05745    1.000
    Si431    Si       0.08595    0.39460    0.10003    1.000
    N432     N        0.08542    0.47745    0.06056    1.000
    N433     N        0.06841    0.43276    0.10814    1.000
    Si434    Si       0.08515    0.47182    0.01793    1.000
    Si435    Si       0.06365    0.40867    0.02990    1.000
    N436     N        0.08759    0.43180    0.00179    1.000
    N437     N        0.05350    0.49689    0.00160    1.000
    Si438    Si       0.05045    0.46041    0.08059    1.000
    N439     N        0.06868    0.31281    0.17728    1.000
    Si440    Si       0.06180    0.29566    0.21711    1.000
    N441     N        0.09940    0.31478    0.23458    1.000
    N442     N        0.07294    0.43192    0.23921    1.000
    Si443    Si       0.07682    0.39916    0.21150    1.000
    Si444    Si       0.10669    0.50810    0.15558    1.000
    Si445    Si       0.06381    0.44372    0.15103    1.000
    N446     N        0.09175    0.42281    0.17615    1.000
    N447     N        0.06746    0.48656    0.15502    1.000
    N448     N        0.07572    0.34874    0.35469    1.000
    N449     N        0.06388    0.36739    0.28672    1.000
    Si450    Si       0.07891    0.33097    0.26955    1.000
    Si451    Si       0.07625    0.30909    0.34054    1.000
    N452     N        0.08673    0.27419    0.36352    1.000
    N453     N        0.09772    0.31137    0.30307    1.000
    Si454    Si       0.08148    0.38052    0.32541    1.000
    N455     N        0.08795    0.48526    0.34625    1.000
    Si456    Si       0.07363    0.45386    0.31834    1.000
    N457     N        0.05825    0.41753    0.33706    1.000
    N458     N        0.06548    0.32753    0.41936    1.000
    Si459    Si       0.08582    0.33363    0.45697    1.000
    Si460    Si       0.08228    0.36107    0.39438    1.000
    N461     N        0.07540    0.37721    0.46129    1.000
    N462     N        0.06707    0.31592    0.49187    1.000
    N463     N        0.10712    0.27883    0.46091    1.000
    Si464    Si       0.09339    0.39826    0.49467    1.000
    N465     N        0.10148    0.45714    0.41603    1.000
    N466     N        0.06595    0.49769    0.44817    1.000
    Si467    Si       0.06027    0.45967    0.42736    1.000
    N468     N        0.05505    0.39508    0.40099    1.000
    N469     N        0.08310    0.32917    0.60183    1.000
    N470     N        0.08207    0.28901    0.54841    1.000
    Si471    Si       0.05940    0.36080    0.58205    1.000
    Si472    Si       0.09684    0.28709    0.50597    1.000
    N473     N        0.08457    0.25778    0.61312    1.000
    Si474    Si       0.09933    0.29139    0.58626    1.000
    Si475    Si       0.08132    0.42861    0.56131    1.000
    N476     N        0.08035    0.39777    0.58930    1.000
    N477     N        0.06725    0.40966    0.52656    1.000
    N478     N        0.06224    0.46635    0.56530    1.000
    Si479    Si       0.08904    0.50182    0.56073    1.000
    N480     N        0.10606    0.50085    0.52154    1.000
    N481     N        0.06348    0.28760    0.72665    1.000
    Si482    Si       0.09051    0.33560    0.64427    1.000
    N483     N        0.07995    0.34959    0.70812    1.000
    N484     N        0.05164    0.31687    0.65623    1.000
    N485     N        0.09966    0.37776    0.65086    1.000
    Si486    Si       0.04860    0.32748    0.74040    1.000
    Si487    Si       0.10192    0.49156    0.68364    1.000
    Si488    Si       0.05919    0.43902    0.71985    1.000
    N489     N        0.09666    0.41464    0.72742    1.000
    Si490    Si       0.08692    0.39054    0.69204    1.000
    N491     N        0.05071    0.41408    0.68549    1.000
    N492     N        0.07276    0.47798    0.71339    1.000
    Si493    Si       0.07504    0.33721    0.85459    1.000
    N494     N        0.09097    0.29674    0.85564    1.000
    N495     N        0.09550    0.36887    0.83351    1.000
    N496     N        0.05343    0.36279    0.76551    1.000
    Si497    Si       0.08578    0.39048    0.76391    1.000
    N498     N        0.08980    0.46038    0.84455    1.000
    N499     N        0.07762    0.42032    0.79452    1.000
    Si500    Si       0.09264    0.41570    0.83765    1.000
    N501     N        0.06307    0.49021    0.77859    1.000
    Si502    Si       0.07670    0.49622    0.86318    1.000
    Si503    Si       0.09515    0.49885    0.74584    1.000
    Si504    Si       0.06197    0.26776    0.86795    1.000
    N505     N        0.07326    0.34711    0.89690    1.000
    Si506    Si       0.07047    0.35945    0.98069    1.000
    Si507    Si       0.06594    0.31218    0.92239    1.000
    N508     N        0.10178    0.30046    0.94453    1.000
    N509     N        0.09343    0.41232    0.88533    1.000
    Si510    Si       0.07059    0.38758    0.91229    1.000
    N511     N        0.09169    0.38555    0.95092    1.000
    N512     N        0.07091    0.48730    0.90911    1.000
    N513     N        0.06128    0.57147    0.05753    1.000
    Si514    Si       0.06723    0.59965    0.02301    1.000
    Si515    Si       0.10490    0.57190    0.06444    1.000
    N516     N        0.08385    0.71068    0.01789    1.000
    N517     N        0.06531    0.68863    0.09849    1.000
    Si518    Si       0.06037    0.64618    0.08315    1.000
    N519     N        0.07694    0.75153    0.07695    1.000
    N520     N        0.10332    0.64303    0.08650    1.000
    Si521    Si       0.10461    0.72956    0.05145    1.000
    Si522    Si       0.05131    0.73024    0.10355    1.000
    N523     N        0.08368    0.54473    0.16387    1.000
    N524     N        0.08569    0.61295    0.17083    1.000
    Si525    Si       0.10248    0.62989    0.20878    1.000
    Si526    Si       0.10461    0.57868    0.15167    1.000
    Si527    Si       0.10746    0.74566    0.23739    1.000
    N528     N        0.05021    0.74021    0.14784    1.000
    Si529    Si       0.07949    0.71313    0.16810    1.000
    N530     N        0.07336    0.64260    0.23795    1.000
    N531     N        0.06231    0.67688    0.18056    1.000
    N532     N        0.10370    0.73840    0.19428    1.000
    Si533    Si       0.05122    0.63704    0.16062    1.000
    N534     N        0.08143    0.60523    0.29375    1.000
    Si535    Si       0.08295    0.52641    0.33287    1.000
    N536     N        0.09225    0.52454    0.28855    1.000
    Si537    Si       0.09529    0.60396    0.33484    1.000
    N538     N        0.09494    0.56298    0.35096    1.000
    Si539    Si       0.04661    0.51523    0.28461    1.000
    N540     N        0.07893    0.63330    0.36280    1.000
    Si541    Si       0.05588    0.63619    0.27636    1.000
    N542     N        0.06812    0.72796    0.32625    1.000
    N543     N        0.07863    0.72019    0.25911    1.000
    Si544    Si       0.08466    0.69845    0.29716    1.000
    N545     N        0.05833    0.66722    0.30488    1.000
    Si546    Si       0.09438    0.75299    0.35081    1.000
    N547     N        0.08098    0.62017    0.43428    1.000
    Si548    Si       0.05672    0.53824    0.46614    1.000
    N549     N        0.10190    0.54718    0.46013    1.000
    Si550    Si       0.10436    0.62972    0.39831    1.000
    Si551    Si       0.06777    0.65531    0.46363    1.000
    N552     N        0.07501    0.69408    0.44252    1.000
    Si553    Si       0.04921    0.72317    0.46705    1.000
    N554     N        0.05656    0.75956    0.37653    1.000
    N555     N        0.06471    0.53568    0.57873    1.000
    Si556    Si       0.06479    0.56737    0.54614    1.000
    N557     N        0.05339    0.54665    0.50889    1.000
    N558     N        0.10876    0.57019    0.53656    1.000
    Si559    Si       0.08092    0.68418    0.52941    1.000
    N560     N        0.07072    0.68237    0.57276    1.000
    N561     N        0.08932    0.65337    0.49974    1.000
    Si562    Si       0.10629    0.70303    0.59395    1.000
    Si563    Si       0.05710    0.53192    0.62275    1.000
    Si564    Si       0.10142    0.58297    0.62521    1.000
    Si565    Si       0.08597    0.55732    0.72787    1.000
    N566     N        0.09476    0.59781    0.72319    1.000
    N567     N        0.06050    0.57398    0.63177    1.000
    Si568    Si       0.08728    0.62401    0.68866    1.000
    N569     N        0.08995    0.50691    0.64388    1.000
    Si570    Si       0.09682    0.67828    0.73944    1.000
    N571     N        0.05326    0.69041    0.73608    1.000
    N572     N        0.08925    0.70326    0.63598    1.000
    N573     N        0.10095    0.66487    0.69874    1.000
    Si574    Si       0.05213    0.72403    0.64063    1.000
    N575     N        0.07289    0.75581    0.70490    1.000
    N576     N        0.09980    0.54025    0.76661    1.000
    N577     N        0.06406    0.57113    0.86508    1.000
    Si578    Si       0.10228    0.59049    0.85081    1.000
    N579     N        0.09164    0.62766    0.83021    1.000
    Si580    Si       0.05651    0.53277    0.77978    1.000
    N581     N        0.05703    0.69114    0.84300    1.000
    Si582    Si       0.05086    0.64936    0.83154    1.000
    Si583    Si       0.05760    0.56075    0.90703    1.000
    N584     N        0.09634    0.55385    0.92416    1.000
    Si585    Si       0.07063    0.61836    0.95241    1.000
    N586     N        0.05829    0.58612    0.98492    1.000
    N587     N        0.04401    0.59700    0.92526    1.000
    Si588    Si       0.05964    0.72323    0.87061    1.000
    N589     N        0.09309    0.72185    0.89788    1.000
    Si590    Si       0.07623    0.69602    0.93056    1.000
    Si591    Si       0.09725    0.67957    0.99026    1.000
    N592     N        0.05219    0.72032    0.95857    1.000
    N593     N        0.06337    0.65684    0.91838    1.000
    N594     N        0.06577    0.65001    0.98303    1.000
    Si595    Si       0.07053    0.79556    0.07624    1.000
    N596     N        0.06693    0.87246    0.02661    1.000
    N597     N        0.08421    0.80959    0.11444    1.000
    N598     N        0.10224    0.81509    0.05137    1.000
    N599     N        0.06313    0.99603    0.01750    1.000
    Si600    Si       0.07321    0.95393    0.03048    1.000
    N601     N        0.06706    0.91012    0.08739    1.000
    Si602    Si       0.05240    0.93829    0.11727    1.000
    N603     N        0.10412    0.96067    0.06060    1.000
    N604     N        0.08137    0.92989    0.99677    1.000
    Si605    Si       0.07965    0.87266    0.23463    1.000
    N606     N        0.07279    0.86829    0.15709    1.000
    Si607    Si       0.05704    0.82984    0.14094    1.000
    N608     N        0.05393    0.83859    0.23366    1.000
    N609     N        0.05866    0.90649    0.21560    1.000
    Si610    Si       0.05510    0.94277    0.23978    1.000
    Si611    Si       0.06912    0.97831    0.17368    1.000
    N612     N        0.08383    0.94926    0.14321    1.000
    N613     N        0.07806    0.85689    0.33572    1.000
    Si614    Si       0.06580    0.81698    0.32537    1.000
    N615     N        0.09814    0.79555    0.34413    1.000
    N616     N        0.08885    0.88614    0.27512    1.000
    N617     N        0.04929    0.79645    0.28975    1.000
    Si618    Si       0.05868    0.79803    0.24663    1.000
    N619     N        0.10108    0.78739    0.24358    1.000
    Si620    Si       0.06282    0.88844    0.31079    1.000
    N621     N        0.09732    0.98751    0.32418    1.000
    N622     N        0.06814    0.92556    0.33136    1.000
    N623     N        0.08027    0.96089    0.26991    1.000
    Si624    Si       0.06322    0.96304    0.31010    1.000
    N625     N        0.05992    0.82504    0.39677    1.000
    Si626    Si       0.08840    0.85501    0.37912    1.000
    N627     N        0.10188    0.86174    0.45271    1.000
    N628     N        0.07590    0.75595    0.47396    1.000
    Si629    Si       0.06768    0.93045    0.37383    1.000
    N630     N        0.09399    0.96201    0.39067    1.000
    Si631    Si       0.07170    0.89104    0.43911    1.000
    N632     N        0.06800    0.92606    0.46382    1.000
    N633     N        0.08236    0.89553    0.39618    1.000
    Si634    Si       0.05254    0.96664    0.46278    1.000
    N635     N        0.08613    0.99479    0.45163    1.000
    N636     N        0.09028    0.80981    0.58237    1.000
    N637     N        0.09623    0.81448    0.50671    1.000
    Si638    Si       0.10004    0.77670    0.61104    1.000
    Si639    Si       0.06221    0.78797    0.50052    1.000
    Si640    Si       0.05309    0.81655    0.56319    1.000
    N641     N        0.07203    0.99373    0.57384    1.000
    Si642    Si       0.07214    0.98739    0.53131    1.000
    Si643    Si       0.07754    0.91814    0.50618    1.000
    N644     N        0.09783    0.95507    0.51814    1.000
    N645     N        0.09231    0.82286    0.68692    1.000
    Si646    Si       0.09166    0.86460    0.67208    1.000
    Si647    Si       0.06054    0.79164    0.67901    1.000
    N648     N        0.07630    0.86187    0.63320    1.000
    N649     N        0.06841    0.76771    0.64020    1.000
    N650     N        0.06651    0.95902    0.73294    1.000
    N651     N        0.06259    0.89128    0.69297    1.000
    N652     N        0.07928    0.98806    0.66911    1.000
    Si653    Si       0.05774    0.91607    0.72771    1.000
    Si654    Si       0.08567    0.99335    0.71403    1.000
    Si655    Si       0.07516    0.78437    0.82198    1.000
    N656     N        0.09988    0.81294    0.84267    1.000
    N657     N        0.06006    0.76614    0.86159    1.000
    N658     N        0.10258    0.76425    0.79680    1.000
    Si659    Si       0.10771    0.87291    0.77375    1.000
    N660     N        0.10672    0.83231    0.75933    1.000
    Si661    Si       0.08644    0.88902    0.84258    1.000
    N662     N        0.07083    0.89538    0.76448    1.000
    N663     N        0.08268    0.99886    0.78754    1.000
    N664     N        0.08940    0.93598    0.84688    1.000
    N665     N        0.05239    0.99561    0.85129    1.000
    Si666    Si       0.05266    0.97343    0.77093    1.000
    Si667    Si       0.04888    0.95512    0.84155    1.000
    N668     N        0.08571    0.87286    0.95353    1.000
    Si669    Si       0.08720    0.79718    0.88146    1.000
    Si670    Si       0.07143    0.86851    0.91380    1.000
    N671     N        0.06474    0.82452    0.90713    1.000
    N672     N        0.09986    0.88377    0.88466    1.000
    N673     N        0.09904    0.94257    0.92047    1.000
    Si674    Si       0.10415    0.98509    0.92005    1.000
    Si675    Si       0.06579    0.89086    0.98684    1.000
    N676     N        0.10607    0.98275    0.96451    1.000
    N677     N        0.14902    0.07700    0.08907    1.000
    Si678    Si       0.14696    0.09055    0.04365    1.000
    N679     N        0.12882    0.01166    0.02042    1.000
    Si680    Si       0.11389    0.06487    0.11176    1.000
    N681     N        0.15939    0.12927    0.05897    1.000
    N682     N        0.16030    0.01004    0.07756    1.000
    N683     N        0.15001    0.20255    0.05518    1.000
    Si684    Si       0.11370    0.21833    0.07712    1.000
    N685     N        0.16322    0.15343    0.99808    1.000
    N686     N        0.13299    0.25529    0.08502    1.000
    N687     N        0.12082    0.06305    0.15344    1.000
    Si688    Si       0.12309    0.12359    0.23902    1.000
    N689     N        0.10457    0.11723    0.20055    1.000
    N690     N        0.10890    0.25652    0.16358    1.000
    N691     N        0.15992    0.21106    0.14256    1.000
    Si692    Si       0.14868    0.24031    0.17134    1.000
    Si693    Si       0.14340    0.17108    0.15525    1.000
    N694     N        0.15192    0.22929    0.21312    1.000
    N695     N        0.15063    0.15727    0.23906    1.000
    N696     N        0.13784    0.14344    0.12291    1.000
    N697     N        0.10919    0.18814    0.18595    1.000
    Si698    Si       0.13042    0.19285    0.22397    1.000
    N699     N        0.15108    0.07449    0.35584    1.000
    Si700    Si       0.12019    0.05390    0.25017    1.000
    N701     N        0.13083    0.01379    0.25627    1.000
    Si702    Si       0.12218    0.10781    0.36458    1.000
    N703     N        0.14566    0.08750    0.24626    1.000
    N704     N        0.15070    0.13948    0.35418    1.000
    Si705    Si       0.14280    0.18133    0.34754    1.000
    Si706    Si       0.12636    0.25455    0.36953    1.000
    N707     N        0.10853    0.18165    0.31975    1.000
    N708     N        0.14770    0.01452    0.48719    1.000
    N709     N        0.12423    0.01592    0.38623    1.000
    Si710    Si       0.12824    0.08237    0.44211    1.000
    N711     N        0.14682    0.10619    0.47299    1.000
    Si712    Si       0.15739    0.04357    0.38757    1.000
    N713     N        0.11471    0.10328    0.40801    1.000
    N714     N        0.16126    0.05752    0.42722    1.000
    N715     N        0.14380    0.17444    0.43408    1.000
    N716     N        0.14078    0.22271    0.48071    1.000
    Si717    Si       0.10976    0.18993    0.41174    1.000
    N718     N        0.12584    0.21065    0.37781    1.000
    Si719    Si       0.16477    0.14139    0.45395    1.000
    N720     N        0.12619    0.11751    0.58238    1.000
    Si721    Si       0.12203    0.07467    0.56910    1.000
    N722     N        0.14717    0.06784    0.53384    1.000
    N723     N        0.12345    0.04321    0.59867    1.000
    Si724    Si       0.16117    0.02523    0.52719    1.000
    N725     N        0.11772    0.20266    0.60507    1.000
    Si726    Si       0.15067    0.20732    0.57827    1.000
    N727     N        0.14797    0.18189    0.54218    1.000
    N728     N        0.13484    0.24185    0.55093    1.000
    Si729    Si       0.11964    0.21123    0.52034    1.000
    Si730    Si       0.12229    0.15728    0.61141    1.000
    N731     N        0.13819    0.02545    0.66519    1.000
    N732     N        0.14891    0.09049    0.65384    1.000
    Si733    Si       0.14343    0.09383    0.73439    1.000
    Si734    Si       0.12252    0.05831    0.63933    1.000
    Si735    Si       0.11335    0.10938    0.66888    1.000
    N736     N        0.10752    0.09814    0.70920    1.000
    Si737    Si       0.15036    0.17074    0.73975    1.000
    N738     N        0.15292    0.25423    0.64312    1.000
    Si739    Si       0.11478    0.23495    0.63481    1.000
    Si740    Si       0.11968    0.18018    0.68589    1.000
    N741     N        0.11382    0.15120    0.65523    1.000
    N742     N        0.10933    0.16699    0.72808    1.000
    N743     N        0.16115    0.18944    0.69859    1.000
    N744     N        0.12929    0.08928    0.77545    1.000
    N745     N        0.14065    0.06771    0.83687    1.000
    Si746    Si       0.15668    0.02674    0.83181    1.000
    N747     N        0.15832    0.02320    0.78755    1.000
    Si748    Si       0.11099    0.09200    0.85905    1.000
    N749     N        0.13253    0.24025    0.82749    1.000
    N750     N        0.12139    0.17789    0.85217    1.000
    Si751    Si       0.12628    0.21650    0.79020    1.000
    Si752    Si       0.14991    0.14671    0.86161    1.000
    Si753    Si       0.12088    0.21796    0.86486    1.000
    N754     N        0.11286    0.24576    0.76093    1.000
    N755     N        0.16129    0.19704    0.77254    1.000
    N756     N        0.11203    0.11148    0.96345    1.000
    N757     N        0.13548    0.11611    0.89013    1.000
    N758     N        0.12960    0.05728    0.92926    1.000
    Si759    Si       0.13577    0.10075    0.92895    1.000
    Si760    Si       0.16195    0.02969    0.92532    1.000
    Si761    Si       0.14333    0.21537    0.94075    1.000
    N762     N        0.14200    0.17211    0.93961    1.000
    Si763    Si       0.12612    0.15098    0.97573    1.000
    N764     N        0.14153    0.23372    0.89956    1.000
    Si765    Si       0.13536    0.29833    0.08992    1.000
    N766     N        0.13177    0.31675    0.05046    1.000
    Si767    Si       0.12845    0.36898    0.03501    1.000
    Si768    Si       0.15866    0.36525    0.10678    1.000
    N769     N        0.16077    0.37772    0.06417    1.000
    Si770    Si       0.16480    0.30674    0.02336    1.000
    N771     N        0.14636    0.39518    0.00249    1.000
    Si772    Si       0.11992    0.49868    0.07520    1.000
    N773     N        0.15736    0.48494    0.05452    1.000
    N774     N        0.12444    0.50279    0.11627    1.000
    N775     N        0.12164    0.48803    0.99862    1.000
    Si776    Si       0.12932    0.33655    0.21159    1.000
    N777     N        0.13934    0.31575    0.17358    1.000
    N778     N        0.12239    0.38600    0.12273    1.000
    Si779    Si       0.10290    0.29815    0.15758    1.000
    N780     N        0.10779    0.37132    0.19979    1.000
    Si781    Si       0.16230    0.49070    0.13702    1.000
    N782     N        0.12540    0.48471    0.24475    1.000
    N783     N        0.14224    0.49388    0.17546    1.000
    Si784    Si       0.15570    0.49660    0.21664    1.000
    Si785    Si       0.12410    0.39627    0.16578    1.000
    N786     N        0.16247    0.40464    0.17959    1.000
    Si787    Si       0.13493    0.28976    0.29702    1.000
    Si788    Si       0.14916    0.37007    0.36098    1.000
    N789     N        0.14530    0.26028    0.33131    1.000
    N790     N        0.13009    0.25928    0.26658    1.000
    N791     N        0.12623    0.38196    0.32479    1.000
    Si792    Si       0.13967    0.41163    0.29445    1.000
    N793     N        0.13769    0.41241    0.24964    1.000
    N794     N        0.14838    0.45428    0.36277    1.000
    N795     N        0.10754    0.43930    0.29732    1.000
    Si796    Si       0.11030    0.44696    0.25325    1.000
    N797     N        0.14989    0.27174    0.40215    1.000
    Si798    Si       0.14655    0.36865    0.43046    1.000
    N799     N        0.13092    0.33584    0.45372    1.000
    N800     N        0.12276    0.37091    0.39463    1.000
    Si801    Si       0.14273    0.29567    0.44205    1.000
    N802     N        0.15792    0.41038    0.43632    1.000
    Si803    Si       0.11646    0.47875    0.37875    1.000
    Si804    Si       0.13146    0.44387    0.44452    1.000
    N805     N        0.14441    0.48709    0.45145    1.000
    N806     N        0.11409    0.43518    0.48433    1.000
    N807     N        0.14185    0.30034    0.58525    1.000
    N808     N        0.13769    0.30100    0.51441    1.000
    N809     N        0.14336    0.37397    0.58722    1.000
    N810     N        0.12305    0.37226    0.51362    1.000
    Si811    Si       0.15444    0.28033    0.54804    1.000
    Si812    Si       0.14623    0.34070    0.49749    1.000
    Si813    Si       0.14898    0.45759    0.58592    1.000
    Si814    Si       0.14430    0.39465    0.54856    1.000
    N815     N        0.12697    0.43459    0.55332    1.000
    N816     N        0.12436    0.49470    0.58412    1.000
    Si817    Si       0.12715    0.46216    0.51472    1.000
    Si818    Si       0.11587    0.39464    0.61385    1.000
    N819     N        0.13613    0.43161    0.62128    1.000
    Si820    Si       0.11998    0.33255    0.70261    1.000
    N821     N        0.14886    0.36660    0.69904    1.000
    N822     N        0.12489    0.31526    0.66223    1.000
    N823     N        0.13625    0.30643    0.73184    1.000
    Si824    Si       0.15457    0.37545    0.74179    1.000
    N825     N        0.12852    0.45715    0.68540    1.000
    Si826    Si       0.13268    0.44144    0.72668    1.000
    Si827    Si       0.15736    0.45088    0.65466    1.000
    N828     N        0.16121    0.49221    0.63820    1.000
    Si829    Si       0.12858    0.28339    0.83667    1.000
    N830     N        0.12604    0.30746    0.80160    1.000
    Si831    Si       0.13593    0.28255    0.76653    1.000
    Si832    Si       0.12749    0.35016    0.80855    1.000
    N833     N        0.12340    0.36867    0.77101    1.000
    N834     N        0.16118    0.35706    0.83557    1.000
    N835     N        0.15025    0.49227    0.82165    1.000
    N836     N        0.13321    0.47589    0.75145    1.000
    N837     N        0.13787    0.42161    0.83160    1.000
    Si838    Si       0.13208    0.46348    0.84795    1.000
    Si839    Si       0.16473    0.39472    0.85330    1.000
    N840     N        0.15046    0.29197    0.98430    1.000
    Si841    Si       0.12732    0.32983    0.96629    1.000
    N842     N        0.15802    0.35515    0.95291    1.000
    Si843    Si       0.10998    0.27132    0.97533    1.000
    Si844    Si       0.14725    0.47323    0.96724    1.000
    Si845    Si       0.11672    0.41152    0.97585    1.000
    N846     N        0.15236    0.45817    0.88602    1.000
    Si847    Si       0.12988    0.42582    0.90660    1.000
    N848     N        0.14685    0.50284    0.93400    1.000
    N849     N        0.15905    0.39644    0.89572    1.000
    N850     N        0.13382    0.43776    0.94828    1.000
    Si851    Si       0.13922    0.61946    0.09883    1.000
    N852     N        0.12037    0.53410    0.05145    1.000
    Si853    Si       0.14689    0.51260    0.02213    1.000
    N854     N        0.11070    0.59681    0.02927    1.000
    N855     N        0.11230    0.58165    0.10605    1.000
    Si856    Si       0.12954    0.61629    0.99696    1.000
    N857     N        0.12920    0.65838    0.01145    1.000
    Si858    Si       0.14896    0.67037    0.04876    1.000
    N859     N        0.12782    0.70025    0.07114    1.000
    Si860    Si       0.10818    0.68322    0.10687    1.000
    N861     N        0.13637    0.75565    0.03662    1.000
    N862     N        0.15436    0.53719    0.23075    1.000
    N863     N        0.14350    0.57195    0.16898    1.000
    Si864    Si       0.15357    0.57610    0.21155    1.000
    N865     N        0.11660    0.59426    0.22878    1.000
    Si866    Si       0.16757    0.64400    0.23076    1.000
    N867     N        0.13570    0.65446    0.20161    1.000
    Si868    Si       0.13696    0.73702    0.16549    1.000
    N869     N        0.14564    0.64895    0.13115    1.000
    N870     N        0.11579    0.70388    0.14517    1.000
    Si871    Si       0.14625    0.67643    0.16524    1.000
    N872     N        0.16872    0.71048    0.18273    1.000
    N873     N        0.14183    0.56714    0.28773    1.000
    Si874    Si       0.13433    0.52680    0.26957    1.000
    N875     N        0.13663    0.61594    0.33187    1.000
    Si876    Si       0.12052    0.60121    0.27168    1.000
    Si877    Si       0.16171    0.57976    0.32334    1.000
    N878     N        0.16580    0.55463    0.35892    1.000
    N879     N        0.14670    0.63459    0.26792    1.000
    N880     N        0.12778    0.68806    0.30087    1.000
    Si881    Si       0.14997    0.65062    0.30884    1.000
    Si882    Si       0.15170    0.72362    0.29225    1.000
    N883     N        0.13647    0.74732    0.32695    1.000
    Si884    Si       0.15240    0.73452    0.36389    1.000
    N885     N        0.14637    0.73074    0.25121    1.000
    Si886    Si       0.12738    0.55745    0.37863    1.000
    N887     N        0.13739    0.60142    0.47486    1.000
    N888     N        0.12697    0.59234    0.40403    1.000
    N889     N        0.11911    0.51929    0.39723    1.000
    Si890    Si       0.11054    0.58724    0.44377    1.000
    Si891    Si       0.10832    0.51050    0.43771    1.000
    Si892    Si       0.10998    0.70408    0.41985    1.000
    N893     N        0.14528    0.67126    0.47555    1.000
    N894     N        0.11292    0.72701    0.38235    1.000
    N895     N        0.12986    0.66536    0.40491    1.000
    N896     N        0.14151    0.72968    0.44256    1.000
    Si897    Si       0.13158    0.59872    0.55839    1.000
    Si898    Si       0.11542    0.54068    0.50379    1.000
    N899     N        0.13316    0.55407    0.62092    1.000
    N900     N        0.10498    0.60401    0.58998    1.000
    N901     N        0.15804    0.53905    0.49427    1.000
    N902     N        0.14234    0.63610    0.53837    1.000
    N903     N        0.12073    0.70364    0.53748    1.000
    N904     N        0.14503    0.68453    0.59231    1.000
    Si905    Si       0.15232    0.67666    0.55117    1.000
    Si906    Si       0.13822    0.74337    0.54854    1.000
    N907     N        0.11454    0.74455    0.58553    1.000
    Si908    Si       0.13040    0.63697    0.49621    1.000
    Si909    Si       0.12665    0.51284    0.62371    1.000
    N910     N        0.10764    0.52772    0.70622    1.000
    N911     N        0.11165    0.60705    0.65966    1.000
    N912     N        0.15996    0.61205    0.70760    1.000
    Si913    Si       0.13123    0.61480    0.74071    1.000
    Si914    Si       0.15305    0.62090    0.66536    1.000
    Si915    Si       0.11384    0.74548    0.71817    1.000
    Si916    Si       0.11789    0.69103    0.66746    1.000
    N917     N        0.15091    0.66370    0.65748    1.000
    N918     N        0.13712    0.72674    0.68550    1.000
    N919     N        0.14897    0.59407    0.77443    1.000
    N920     N        0.12489    0.56123    0.82850    1.000
    Si921    Si       0.13586    0.55610    0.78575    1.000
    Si922    Si       0.14687    0.52994    0.84709    1.000
    Si923    Si       0.15914    0.62656    0.86837    1.000
    N924     N        0.11606    0.51358    0.87325    1.000
    N925     N        0.15993    0.63448    0.82503    1.000
    Si926    Si       0.12695    0.72772    0.79123    1.000
    N927     N        0.13095    0.69110    0.81576    1.000
    Si928    Si       0.12116    0.64837    0.80724    1.000
    N929     N        0.14964    0.73804    0.85689    1.000
    Si930    Si       0.15757    0.69160    0.84971    1.000
    N931     N        0.11561    0.64886    0.76248    1.000
    N932     N        0.11402    0.71495    0.75083    1.000
    Si933    Si       0.10804    0.51262    0.91630    1.000
    N934     N        0.11463    0.61177    0.95569    1.000
    N935     N        0.12770    0.60065    0.88501    1.000
    Si936    Si       0.12810    0.58470    0.92395    1.000
    N937     N        0.15647    0.66820    0.88622    1.000
    Si938    Si       0.15243    0.68504    0.92966    1.000
    Si939    Si       0.13074    0.74167    0.89650    1.000
    N940     N        0.11364    0.68773    0.95181    1.000
    N941     N        0.16102    0.72821    0.92360    1.000
    Si942    Si       0.14366    0.79530    0.05211    1.000
    N943     N        0.15382    0.80283    0.09347    1.000
    N944     N        0.12755    0.85031    0.99923    1.000
    Si945    Si       0.10604    0.85478    0.03381    1.000
    N946     N        0.12688    0.88742    0.05860    1.000
    Si947    Si       0.12075    0.00085    0.06527    1.000
    Si948    Si       0.11091    0.91869    0.08283    1.000
    N949     N        0.12561    0.90876    0.12107    1.000
    Si950    Si       0.12701    0.80872    0.12653    1.000
    N951     N        0.16290    0.80164    0.21625    1.000
    N952     N        0.14050    0.77521    0.14801    1.000
    N953     N        0.11776    0.85526    0.22138    1.000
    N954     N        0.13494    0.84287    0.15196    1.000
    Si955    Si       0.13106    0.81945    0.24147    1.000
    Si956    Si       0.11478    0.88024    0.15233    1.000
    Si957    Si       0.16762    0.82784    0.17981    1.000
    Si958    Si       0.13725    0.99793    0.21820    1.000
    N959     N        0.13068    0.90758    0.18320    1.000
    N960     N        0.10924    0.97910    0.18979    1.000
    Si961    Si       0.14916    0.88464    0.21419    1.000
    Si962    Si       0.12394    0.94394    0.15973    1.000
    N963     N        0.14500    0.84071    0.27723    1.000
    Si964    Si       0.13663    0.80790    0.36042    1.000
    Si965    Si       0.13223    0.88348    0.28271    1.000
    Si966    Si       0.11646    0.98338    0.28360    1.000
    N967     N        0.15171    0.89512    0.31997    1.000
    N968     N        0.15176    0.95860    0.29063    1.000
    Si969    Si       0.11809    0.98238    0.36002    1.000
    N970     N        0.15574    0.96246    0.35965    1.000
    N971     N        0.15480    0.90424    0.25113    1.000
    Si972    Si       0.16405    0.93748    0.32595    1.000
    Si973    Si       0.13363    0.83718    0.43618    1.000
    N974     N        0.13626    0.79307    0.44720    1.000
    N975     N        0.12551    0.83770    0.39202    1.000
    N976     N        0.16013    0.77489    0.38109    1.000
    Si977    Si       0.16261    0.76586    0.42340    1.000
    Si978    Si       0.12030    0.75758    0.46862    1.000
    Si979    Si       0.11738    0.98670    0.42049    1.000
    N980     N        0.15844    0.97393    0.42961    1.000
    N981     N        0.14567    0.86220    0.58017    1.000
    Si982    Si       0.13348    0.82212    0.58425    1.000
    Si983    Si       0.13931    0.80516    0.51295    1.000
    N984     N        0.15717    0.80264    0.55300    1.000
    N985     N        0.13821    0.76030    0.50775    1.000
    N986     N        0.15102    0.84581    0.49981    1.000
    Si987    Si       0.10806    0.85315    0.49333    1.000
    Si988    Si       0.11248    0.00357    0.58567    1.000
    Si989    Si       0.14324    0.88750    0.54645    1.000
    N990     N        0.13804    0.99767    0.55177    1.000
    Si991    Si       0.13836    0.95885    0.53129    1.000
    N992     N        0.14455    0.92894    0.56223    1.000
    Si993    Si       0.15651    0.94730    0.59890    1.000
    N994     N        0.12722    0.97382    0.61455    1.000
    N995     N        0.10466    0.88762    0.52107    1.000
    N996     N        0.13683    0.79983    0.62147    1.000
    Si997    Si       0.12107    0.81739    0.72014    1.000
    N998     N        0.13219    0.77902    0.73424    1.000
    Si999    Si       0.15620    0.87780    0.71705    1.000
    N1000    N        0.16188    0.83601    0.71632    1.000
    N1001    N        0.12984    0.88581    0.68287    1.000
    N1002    N        0.16235    0.91447    0.62871    1.000
    Si1003   Si       0.15519    0.91888    0.67076    1.000
    N1004    N        0.14240    0.95682    0.68022    1.000
    Si1005   Si       0.12106    0.98589    0.65560    1.000
    Si1006   Si       0.16149    0.97962    0.71427    1.000
    N1007    N        0.12487    0.99607    0.73168    1.000
    Si1008   Si       0.12446    0.79508    0.77465    1.000
    Si1009   Si       0.13537    0.83499    0.82987    1.000
    N1010    N        0.15691    0.81339    0.79779    1.000
    N1011    N        0.16057    0.82997    0.86404    1.000
    N1012    N        0.11662    0.87212    0.81598    1.000
    Si1013   Si       0.12560    0.95813    0.83476    1.000
    N1014    N        0.13449    0.95377    0.79343    1.000
    Si1015   Si       0.12662    0.99384    0.77666    1.000
    N1016    N        0.14130    0.89377    0.75374    1.000
    N1017    N        0.15227    0.94158    0.86557    1.000
    N1018    N        0.12135    0.00174    0.83848    1.000
    Si1019   Si       0.16334    0.92686    0.77390    1.000
    N1020    N        0.15659    0.84067    0.93491    1.000
    Si1021   Si       0.15633    0.81117    0.90400    1.000
    Si1022   Si       0.12849    0.86390    0.95920    1.000
    N1023    N        0.12189    0.78482    0.90288    1.000
    Si1024   Si       0.10776    0.93916    0.96340    1.000
    N1025    N        0.13746    0.90712    0.96686    1.000
    Si1026   Si       0.11384    0.92564    0.88438    1.000
    N1027    N        0.14467    0.99630    0.90790    1.000
    Si1028   Si       0.18112    0.04626    0.09005    1.000
    N1029    N        0.21545    0.07048    0.07321    1.000
    Si1030   Si       0.21576    0.07446    0.02972    1.000
    N1031    N        0.17325    0.06159    0.02501    1.000
    N1032    N        0.20544    0.12223    0.11719    1.000
    N1033    N        0.22107    0.11279    0.00721    1.000
    Si1034   Si       0.16985    0.02274    0.00837    1.000
    Si1035   Si       0.16511    0.11711    0.10310    1.000
    N1036    N        0.20361    0.22686    0.09164    1.000
    N1037    N        0.21409    0.17068    0.04586    1.000
    Si1038   Si       0.16932    0.24111    0.06678    1.000
    Si1039   Si       0.17024    0.16651    0.03880    1.000
    N1040    N        0.20923    0.12382    0.23869    1.000
    N1041    N        0.19185    0.03665    0.13044    1.000
    N1042    N        0.18665    0.08634    0.17311    1.000
    Si1043   Si       0.20536    0.12370    0.16150    1.000
    Si1044   Si       0.16308    0.05298    0.16223    1.000
    N1045    N        0.16299    0.02218    0.19231    1.000
    N1046    N        0.21636    0.19559    0.22583    1.000
    Si1047   Si       0.19857    0.22808    0.13447    1.000
    N1048    N        0.17783    0.15266    0.17815    1.000
    Si1049   Si       0.19128    0.15948    0.22079    1.000
    Si1050   Si       0.16778    0.25252    0.24630    1.000
    N1051    N        0.19124    0.09981    0.30366    1.000
    Si1052   Si       0.17827    0.10510    0.34427    1.000
    Si1053   Si       0.18579    0.09279    0.26157    1.000
    N1054    N        0.21544    0.06000    0.26342    1.000
    N1055    N        0.18052    0.20073    0.33411    1.000
    N1056    N        0.19295    0.23263    0.27651    1.000
    Si1057   Si       0.18051    0.24072    0.31794    1.000
    Si1058   Si       0.22060    0.18365    0.33911    1.000
    N1059    N        0.21054    0.09284    0.37195    1.000
    N1060    N        0.19941    0.06806    0.49071    1.000
    N1061    N        0.19364    0.01944    0.38334    1.000
    Si1062   Si       0.19490    0.07467    0.44696    1.000
    N1063    N        0.19281    0.11821    0.43023    1.000
    N1064    N        0.18448    0.16797    0.48167    1.000
    N1065    N        0.19970    0.22533    0.44036    1.000
    Si1066   Si       0.17031    0.20159    0.45894    1.000
    N1067    N        0.19617    0.09789    0.60096    1.000
    N1068    N        0.18115    0.12651    0.53645    1.000
    Si1069   Si       0.16902    0.12364    0.57950    1.000
    N1070    N        0.20185    0.01260    0.53477    1.000
    Si1071   Si       0.16950    0.09618    0.50808    1.000
    Si1072   Si       0.18466    0.16788    0.52648    1.000
    N1073    N        0.18657    0.22644    0.58764    1.000
    N1074    N        0.21690    0.19420    0.53694    1.000
    N1075    N        0.16726    0.16062    0.60164    1.000
    Si1076   Si       0.21912    0.23409    0.55672    1.000
    Si1077   Si       0.17385    0.04020    0.68663    1.000
    Si1078   Si       0.19192    0.09563    0.64349    1.000
    N1079    N        0.20614    0.05983    0.66370    1.000
    N1080    N        0.16910    0.13080    0.73811    1.000
    N1081    N        0.16811    0.05882    0.72387    1.000
    Si1082   Si       0.19340    0.24311    0.62807    1.000
    N1083    N        0.20954    0.20755    0.64731    1.000
    N1084    N        0.20267    0.13675    0.65752    1.000
    Si1085   Si       0.20031    0.20579    0.68982    1.000
    N1086    N        0.20753    0.24484    0.70815    1.000
    Si1087   Si       0.20202    0.16813    0.62678    1.000
    N1088    N        0.19829    0.08657    0.77778    1.000
    Si1089   Si       0.18518    0.04505    0.76159    1.000
    N1090    N        0.20937    0.06863    0.83964    1.000
    N1091    N        0.17144    0.12499    0.83255    1.000
    Si1092   Si       0.20985    0.11184    0.85324    1.000
    Si1093   Si       0.20868    0.12079    0.74973    1.000
    N1094    N        0.21969    0.01824    0.76171    1.000
    Si1095   Si       0.16230    0.09153    0.80628    1.000
    N1096    N        0.18845    0.00822    0.85303    1.000
    N1097    N        0.21695    0.18317    0.82368    1.000
    Si1098   Si       0.20210    0.19241    0.78468    1.000
    Si1099   Si       0.21290    0.19312    0.86522    1.000
    Si1100   Si       0.21624    0.25827    0.74940    1.000
    Si1101   Si       0.21289    0.03936    0.86992    1.000
    N1102    N        0.19196    0.05247    0.90467    1.000
    N1103    N        0.17924    0.11023    0.94382    1.000
    Si1104   Si       0.21020    0.08667    0.92329    1.000
    N1105    N        0.17906    0.01700    0.96518    1.000
    Si1106   Si       0.19743    0.13366    0.97786    1.000
    Si1107   Si       0.17763    0.15120    0.92208    1.000
    N1108    N        0.20782    0.23351    0.87521    1.000
    N1109    N        0.18198    0.16670    0.88220    1.000
    N1110    N        0.17675    0.22960    0.96145    1.000
    N1111    N        0.21079    0.16432    0.94928    1.000
    N1112    N        0.18346    0.27112    0.04144    1.000
    N1113    N        0.18589    0.34361    0.01699    1.000
    N1114    N        0.16554    0.32228    0.11115    1.000
    Si1115   Si       0.19869    0.38705    0.04304    1.000
    N1116    N        0.20052    0.42956    0.05371    1.000
    Si1117   Si       0.18648    0.46274    0.07743    1.000
    Si1118   Si       0.21010    0.44330    0.01288    1.000
    N1119    N        0.21922    0.49268    0.08367    1.000
    N1120    N        0.17157    0.45355    0.11803    1.000
    N1121    N        0.21253    0.40182    0.99783    1.000
    N1122    N        0.21289    0.31931    0.16798    1.000
    N1123    N        0.19066    0.28624    0.22797    1.000
    Si1124   Si       0.17524    0.30707    0.15081    1.000
    Si1125   Si       0.21364    0.28223    0.19185    1.000
    N1126    N        0.18395    0.26505    0.15992    1.000
    N1127    N        0.16503    0.35145    0.23146    1.000
    Si1128   Si       0.18841    0.42052    0.14726    1.000
    N1129    N        0.20896    0.44961    0.16882    1.000
    N1130    N        0.19544    0.48595    0.22534    1.000
    Si1131   Si       0.21673    0.45224    0.21162    1.000
    N1132    N        0.19445    0.38527    0.12289    1.000
    N1133    N        0.20112    0.41960    0.23611    1.000
    Si1134   Si       0.16573    0.39537    0.22248    1.000
    N1135    N        0.20862    0.27278    0.33245    1.000
    Si1136   Si       0.19507    0.31332    0.32570    1.000
    N1137    N        0.17330    0.33537    0.35682    1.000
    N1138    N        0.17118    0.31329    0.28983    1.000
    Si1139   Si       0.19159    0.32301    0.25132    1.000
    N1140    N        0.21186    0.46240    0.35084    1.000
    Si1141   Si       0.21315    0.43044    0.27835    1.000
    N1142    N        0.18071    0.41949    0.30657    1.000
    Si1143   Si       0.18194    0.43128    0.34809    1.000
    Si1144   Si       0.20422    0.50317    0.26340    1.000
    Si1145   Si       0.20534    0.35335    0.38079    1.000
    N1146    N        0.18956    0.35783    0.42111    1.000
    N1147    N        0.18577    0.29445    0.44805    1.000
    Si1148   Si       0.20565    0.33325    0.45443    1.000
    N1149    N        0.18820    0.35148    0.48944    1.000
    Si1150   Si       0.18847    0.26162    0.41678    1.000
    Si1151   Si       0.22089    0.47585    0.39156    1.000
    N1152    N        0.18786    0.39494    0.37297    1.000
    N1153    N        0.21427    0.44599    0.42047    1.000
    N1154    N        0.21462    0.50346    0.46667    1.000
    Si1155   Si       0.17443    0.50060    0.48146    1.000
    Si1156   Si       0.20018    0.40455    0.42071    1.000
    N1157    N        0.19416    0.33767    0.55661    1.000
    Si1158   Si       0.20586    0.36636    0.52662    1.000
    N1159    N        0.19844    0.27117    0.54486    1.000
    Si1160   Si       0.16559    0.33680    0.59014    1.000
    Si1161   Si       0.22495    0.30689    0.55200    1.000
    N1162    N        0.19062    0.45658    0.57568    1.000
    Si1163   Si       0.19638    0.44597    0.53389    1.000
    N1164    N        0.18388    0.40354    0.53529    1.000
    N1165    N        0.16912    0.47243    0.51254    1.000
    N1166    N        0.18372    0.31109    0.69125    1.000
    N1167    N        0.21220    0.37806    0.67990    1.000
    Si1168   Si       0.17967    0.35091    0.67242    1.000
    Si1169   Si       0.18360    0.31123    0.73486    1.000
    N1170    N        0.18272    0.33276    0.63086    1.000
    N1171    N        0.21213    0.27996    0.64601    1.000
    Si1172   Si       0.22392    0.28150    0.68956    1.000
    Si1173   Si       0.16431    0.29431    0.65329    1.000
    N1174    N        0.19542    0.44069    0.67153    1.000
    N1175    N        0.16949    0.41691    0.73551    1.000
    Si1176   Si       0.20002    0.41042    0.70357    1.000
    Si1177   Si       0.18802    0.32821    0.85226    1.000
    N1178    N        0.18617    0.34820    0.75797    1.000
    N1179    N        0.17892    0.27394    0.76371    1.000
    N1180    N        0.21883    0.33313    0.81988    1.000
    Si1181   Si       0.22088    0.35732    0.78525    1.000
    N1182    N        0.16489    0.29139    0.86058    1.000
    N1183    N        0.20172    0.46887    0.77398    1.000
    N1184    N        0.20267    0.41505    0.85693    1.000
    Si1185   Si       0.20697    0.42839    0.76103    1.000
    N1186    N        0.21525    0.40030    0.79313    1.000
    Si1187   Si       0.16365    0.48936    0.77991    1.000
    N1188    N        0.21858    0.28458    0.98874    1.000
    N1189    N        0.19490    0.28039    0.92241    1.000
    Si1190   Si       0.18701    0.27203    0.96284    1.000
    Si1191   Si       0.18371    0.37298    0.98449    1.000
    N1192    N        0.20025    0.34066    0.89247    1.000
    Si1193   Si       0.18650    0.36909    0.92042    1.000
    N1194    N        0.21782    0.35440    0.95805    1.000
    Si1195   Si       0.17596    0.25901    0.88863    1.000
    N1196    N        0.20835    0.47109    0.90963    1.000
    Si1197   Si       0.19297    0.43130    0.89616    1.000
    N1198    N        0.21160    0.40597    0.92641    1.000
    N1199    N        0.18577    0.46807    0.98493    1.000
    Si1200   Si       0.17468    0.49401    0.90013    1.000
    Si1201   Si       0.19943    0.61100    0.07859    1.000
    N1202    N        0.17378    0.58883    0.10527    1.000
    N1203    N        0.22450    0.58865    0.05001    1.000
    N1204    N        0.16619    0.54173    0.99784    1.000
    Si1205   Si       0.22628    0.51820    0.11857    1.000
    N1206    N        0.16658    0.63607    0.06653    1.000
    N1207    N        0.17824    0.69331    0.02255    1.000
    Si1208   Si       0.17290    0.73833    0.02088    1.000
    N1209    N        0.19463    0.74384    0.11340    1.000
    N1210    N        0.21145    0.74280    0.04437    1.000
    Si1211   Si       0.22029    0.69753    0.03249    1.000
    N1212    N        0.22344    0.65076    0.01024    1.000
    Si1213   Si       0.18123    0.65826    0.99481    1.000
    Si1214   Si       0.22305    0.60331    0.20056    1.000
    N1215    N        0.18654    0.52495    0.13659    1.000
    N1216    N        0.18413    0.60527    0.21983    1.000
    Si1217   Si       0.17811    0.56666    0.14253    1.000
    N1218    N        0.21409    0.58334    0.16246    1.000
    N1219    N        0.19562    0.67917    0.23665    1.000
    N1220    N        0.21199    0.74553    0.22586    1.000
    Si1221   Si       0.17951    0.71523    0.22424    1.000
    N1222    N        0.20411    0.58814    0.31790    1.000
    Si1223   Si       0.20757    0.54291    0.36461    1.000
    Si1224   Si       0.21427    0.62526    0.34191    1.000
    N1225    N        0.17006    0.50852    0.28939    1.000
    N1226    N        0.18944    0.65575    0.32120    1.000
    N1227    N        0.19403    0.72207    0.30044    1.000
    Si1228   Si       0.20553    0.69528    0.33300    1.000
    Si1229   Si       0.21621    0.75991    0.30099    1.000
    N1230    N        0.19148    0.56731    0.43925    1.000
    Si1231   Si       0.20195    0.59735    0.40799    1.000
    N1232    N        0.20473    0.51413    0.39732    1.000
    Si1233   Si       0.17229    0.57565    0.47625    1.000
    Si1234   Si       0.21717    0.53299    0.43519    1.000
    Si1235   Si       0.17277    0.67098    0.39529    1.000
    N1236    N        0.17830    0.70290    0.36887    1.000
    N1237    N        0.19903    0.63556    0.38350    1.000
    Si1238   Si       0.17249    0.70161    0.45973    1.000
    N1239    N        0.19567    0.67828    0.43065    1.000
    N1240    N        0.20159    0.71925    0.48629    1.000
    N1241    N        0.20358    0.75142    0.42778    1.000
    Si1242   Si       0.20527    0.59645    0.54384    1.000
    Si1243   Si       0.17327    0.56993    0.60759    1.000
    N1244    N        0.20315    0.53795    0.60591    1.000
    N1245    N        0.17278    0.58701    0.56871    1.000
    N1246    N        0.20164    0.59665    0.49958    1.000
    N1247    N        0.19230    0.68573    0.53869    1.000
    Si1248   Si       0.20100    0.74134    0.60454    1.000
    Si1249   Si       0.20809    0.72815    0.52904    1.000
    N1250    N        0.18159    0.74390    0.56434    1.000
    N1251    N        0.18001    0.59963    0.63935    1.000
    Si1252   Si       0.20243    0.61446    0.72087    1.000
    Si1253   Si       0.21872    0.62068    0.64014    1.000
    N1254    N        0.21736    0.57324    0.73422    1.000
    N1255    N        0.21213    0.52562    0.67803    1.000
    N1256    N        0.22192    0.62821    0.68370    1.000
    Si1257   Si       0.20228    0.50903    0.63891    1.000
    Si1258   Si       0.17323    0.68339    0.62628    1.000
    N1259    N        0.21156    0.66022    0.62363    1.000
    N1260    N        0.18921    0.72222    0.64053    1.000
    Si1261   Si       0.17922    0.73802    0.67956    1.000
    N1262    N        0.19901    0.72502    0.71664    1.000
    Si1263   Si       0.21023    0.55367    0.77385    1.000
    N1264    N        0.21027    0.58587    0.80373    1.000
    Si1265   Si       0.18206    0.61731    0.79166    1.000
    N1266    N        0.17112    0.53262    0.77392    1.000
    Si1267   Si       0.22687    0.59893    0.84239    1.000
    N1268    N        0.19939    0.63840    0.75686    1.000
    N1269    N        0.19961    0.70416    0.84082    1.000
    Si1270   Si       0.18287    0.74336    0.82897    1.000
    Si1271   Si       0.19790    0.74368    0.75813    1.000
    N1272    N        0.16876    0.73976    0.78852    1.000
    N1273    N        0.19696    0.60337    0.87395    1.000
    N1274    N        0.17707    0.53255    0.87980    1.000
    Si1275   Si       0.19585    0.56734    0.89645    1.000
    Si1276   Si       0.18051    0.57374    0.97456    1.000
    N1277    N        0.16897    0.57289    0.93210    1.000
    N1278    N        0.17289    0.61409    0.99150    1.000
    Si1279   Si       0.19445    0.75196    0.93892    1.000
    N1280    N        0.18669    0.67129    0.95268    1.000
    N1281    N        0.19158    0.86570    0.08392    1.000
    N1282    N        0.18111    0.80696    0.03312    1.000
    Si1283   Si       0.20374    0.82984    0.06274    1.000
    Si1284   Si       0.20898    0.78897    0.00549    1.000
    Si1285   Si       0.18705    0.78710    0.11797    1.000
    N1286    N        0.22055    0.80149    0.09111    1.000
    N1287    N        0.18951    0.89819    0.02663    1.000
    Si1288   Si       0.18720    0.97775    0.06364    1.000
    N1289    N        0.21300    0.97883    0.09711    1.000
    N1290    N        0.19665    0.99424    0.02594    1.000
    N1291    N        0.17131    0.93704    0.07774    1.000
    Si1292   Si       0.19119    0.94613    0.11774    1.000
    Si1293   Si       0.16784    0.89655    0.06468    1.000
    N1294    N        0.19516    0.81061    0.15272    1.000
    Si1295   Si       0.20003    0.78632    0.23569    1.000
    N1296    N        0.18349    0.86308    0.19956    1.000
    Si1297   Si       0.22248    0.85929    0.21356    1.000
    N1298    N        0.21604    0.91375    0.13199    1.000
    Si1299   Si       0.18355    0.98406    0.18188    1.000
    N1300    N        0.16820    0.96729    0.21955    1.000
    N1301    N        0.16341    0.96041    0.14926    1.000
    N1302    N        0.19161    0.78738    0.27858    1.000
    Si1303   Si       0.17986    0.82441    0.29844    1.000
    N1304    N        0.20821    0.85789    0.30231    1.000
    N1305    N        0.17163    0.82412    0.34098    1.000
    Si1306   Si       0.19594    0.79557    0.36676    1.000
    Si1307   Si       0.18219    0.86822    0.33706    1.000
    N1308    N        0.21905    0.77027    0.34272    1.000
    N1309    N        0.20749    0.92941    0.33089    1.000
    N1310    N        0.21500    0.93872    0.26291    1.000
    Si1311   Si       0.17348    0.94246    0.25552    1.000
    N1312    N        0.19954    0.88090    0.37681    1.000
    N1313    N        0.21177    0.81235    0.40263    1.000
    Si1314   Si       0.18640    0.86443    0.48234    1.000
    Si1315   Si       0.20504    0.85529    0.41007    1.000
    N1316    N        0.17284    0.85510    0.44071    1.000
    N1317    N        0.21529    0.99202    0.45727    1.000
    Si1318   Si       0.22212    0.91704    0.37086    1.000
    N1319    N        0.21345    0.94929    0.39837    1.000
    Si1320   Si       0.17359    0.98373    0.46961    1.000
    Si1321   Si       0.18102    0.97857    0.39112    1.000
    N1322    N        0.21024    0.90105    0.47716    1.000
    Si1323   Si       0.19624    0.78767    0.56016    1.000
    N1324    N        0.20343    0.78583    0.60805    1.000
    N1325    N        0.22158    0.77295    0.52714    1.000
    Si1326   Si       0.17510    0.87709    0.60974    1.000
    N1327    N        0.22029    0.82729    0.56509    1.000
    Si1328   Si       0.22307    0.85935    0.53667    1.000
    N1329    N        0.21951    0.83843    0.49692    1.000
    N1330    N        0.18891    0.88699    0.53453    1.000
    N1331    N        0.21745    0.88953    0.60653    1.000
    Si1332   Si       0.20074    0.92422    0.51231    1.000
    N1333    N        0.19774    0.96216    0.59252    1.000
    N1334    N        0.16833    0.95173    0.50155    1.000
    Si1335   Si       0.22491    0.98090    0.55744    1.000
    N1336    N        0.18841    0.84358    0.63922    1.000
    Si1337   Si       0.19307    0.80789    0.71191    1.000
    N1338    N        0.18457    0.78263    0.67654    1.000
    Si1339   Si       0.17781    0.80259    0.63888    1.000
    N1340    N        0.18521    0.90514    0.70116    1.000
    N1341    N        0.19471    0.00157    0.69653    1.000
    Si1342   Si       0.19864    0.80499    0.79074    1.000
    N1343    N        0.21277    0.77509    0.82303    1.000
    N1344    N        0.22072    0.84123    0.79579    1.000
    N1345    N        0.20768    0.78585    0.74954    1.000
    Si1346   Si       0.21833    0.87886    0.81298    1.000
    N1347    N        0.21358    0.88337    0.85533    1.000
    N1348    N        0.18691    0.90861    0.80534    1.000
    Si1349   Si       0.18837    0.92106    0.84754    1.000
    Si1350   Si       0.21898    0.97558    0.75136    1.000
    N1351    N        0.21988    0.95117    0.85531    1.000
    N1352    N        0.18031    0.95831    0.74801    1.000
    Si1353   Si       0.19987    0.84013    0.94459    1.000
    N1354    N        0.19246    0.78518    0.90833    1.000
    N1355    N        0.21865    0.80765    0.96640    1.000
    N1356    N        0.20023    0.87763    0.96486    1.000
    N1357    N        0.18686    0.75321    0.98356    1.000
    Si1358   Si       0.20565    0.98307    0.95645    1.000
    N1359    N        0.20854    0.97909    0.91319    1.000
    Si1360   Si       0.17571    0.90682    0.98638    1.000
    N1361    N        0.19568    0.94226    0.96647    1.000
    Si1362   Si       0.17599    0.97792    0.88315    1.000
    N1363    N        0.26503    0.11647    0.06234    1.000
    N1364    N        0.24418    0.04550    0.01224    1.000
    N1365    N        0.26106    0.02504    0.10894    1.000
    Si1366   Si       0.23720    0.10097    0.09431    1.000
    Si1367   Si       0.24358    0.14097    0.03139    1.000
    N1368    N        0.27045    0.18995    0.08368    1.000
    N1369    N        0.24032    0.22966    0.03264    1.000
    N1370    N        0.27008    0.16334    0.00633    1.000
    Si1371   Si       0.23217    0.20453    0.06789    1.000
    Si1372   Si       0.26228    0.20581    0.00352    1.000
    N1373    N        0.26658    0.09429    0.12590    1.000
    Si1374   Si       0.24990    0.12140    0.22321    1.000
    N1375    N        0.26765    0.08173    0.22542    1.000
    Si1376   Si       0.28082    0.12321    0.15489    1.000
    Si1377   Si       0.25277    0.04486    0.24409    1.000
    Si1378   Si       0.22585    0.00915    0.12671    1.000
    N1379    N        0.25450    0.00941    0.22033    1.000
    N1380    N        0.24566    0.12702    0.18018    1.000
    Si1381   Si       0.24368    0.21494    0.19594    1.000
    N1382    N        0.22814    0.20646    0.15639    1.000
    N1383    N        0.24949    0.25952    0.19024    1.000
    N1384    N        0.25966    0.10641    0.31013    1.000
    Si1385   Si       0.26615    0.01656    0.31429    1.000
    N1386    N        0.23522    0.04195    0.33055    1.000
    Si1387   Si       0.27981    0.10330    0.34981    1.000
    N1388    N        0.27928    0.03793    0.27881    1.000
    Si1389   Si       0.22752    0.07479    0.30520    1.000
    N1390    N        0.26679    0.21385    0.27029    1.000
    N1391    N        0.25065    0.21581    0.34340    1.000
    Si1392   Si       0.26359    0.14594    0.29236    1.000
    N1393    N        0.27255    0.14900    0.25045    1.000
    Si1394   Si       0.28003    0.20821    0.31207    1.000
    N1395    N        0.23307    0.15494    0.36921    1.000
    N1396    N        0.23050    0.17244    0.29896    1.000
    Si1397   Si       0.22363    0.20489    0.26861    1.000
    Si1398   Si       0.22239    0.12478    0.40052    1.000
    N1399    N        0.26857    0.06784    0.38306    1.000
    Si1400   Si       0.25211    0.02035    0.45365    1.000
    N1401    N        0.25717    0.11756    0.42768    1.000
    Si1402   Si       0.26819    0.07621    0.42610    1.000
    N1403    N        0.23140    0.05511    0.43525    1.000
    Si1404   Si       0.22745    0.05018    0.37422    1.000
    N1405    N        0.26012    0.01975    0.49788    1.000
    N1406    N        0.22830    0.25616    0.39631    1.000
    Si1407   Si       0.24116    0.22769    0.42769    1.000
    Si1408   Si       0.27061    0.15469    0.44712    1.000
    N1409    N        0.25380    0.18568    0.41978    1.000
    N1410    N        0.27280    0.25093    0.44559    1.000
    N1411    N        0.26383    0.16813    0.48843    1.000
    Si1412   Si       0.27184    0.17394    0.38046    1.000
    N1413    N        0.26666    0.11208    0.58344    1.000
    N1414    N        0.24916    0.05111    0.61033    1.000
    Si1415   Si       0.23372    0.08209    0.58544    1.000
    N1416    N        0.24268    0.06900    0.54516    1.000
    Si1417   Si       0.28028    0.02922    0.59155    1.000
    Si1418   Si       0.22636    0.04278    0.51470    1.000
    Si1419   Si       0.27864    0.15234    0.58708    1.000
    N1420    N        0.24785    0.23839    0.59522    1.000
    Si1421   Si       0.25705    0.19492    0.52097    1.000
    N1422    N        0.24429    0.16975    0.60950    1.000
    N1423    N        0.25908    0.23874    0.53044    1.000
    N1424    N        0.28138    0.17099    0.54867    1.000
    Si1425   Si       0.24437    0.04597    0.65250    1.000
    N1426    N        0.23632    0.11116    0.71764    1.000
    N1427    N        0.27801    0.06744    0.67088    1.000
    Si1428   Si       0.27777    0.10203    0.70067    1.000
    N1429    N        0.28285    0.21852    0.72349    1.000
    N1430    N        0.27308    0.13837    0.67456    1.000
    Si1431   Si       0.23284    0.14269    0.68724    1.000
    Si1432   Si       0.25114    0.20850    0.62508    1.000
    N1433    N        0.23011    0.18028    0.70737    1.000
    Si1434   Si       0.25349    0.18962    0.74266    1.000
    N1435    N        0.26579    0.06057    0.78801    1.000
    N1436    N        0.24064    0.12021    0.82230    1.000
    Si1437   Si       0.23399    0.08202    0.80437    1.000
    Si1438   Si       0.25814    0.01853    0.78210    1.000
    Si1439   Si       0.26235    0.24092    0.79589    1.000
    Si1440   Si       0.24799    0.15844    0.80748    1.000
    N1441    N        0.26348    0.23256    0.83838    1.000
    N1442    N        0.23100    0.22257    0.76956    1.000
    N1443    N        0.22593    0.15771    0.76862    1.000
    N1444    N        0.22424    0.11451    0.89394    1.000
    N1445    N        0.25461    0.03314    0.88308    1.000
    Si1446   Si       0.26805    0.06147    0.97932    1.000
    N1447    N        0.24477    0.07119    0.94226    1.000
    Si1448   Si       0.27375    0.04746    0.91766    1.000
    Si1449   Si       0.24933    0.24813    0.87502    1.000
    N1450    N        0.24828    0.17902    0.88927    1.000
    N1451    N        0.27244    0.14598    0.93678    1.000
    Si1452   Si       0.24809    0.18264    0.93367    1.000
    N1453    N        0.26398    0.21123    0.96037    1.000
    Si1454   Si       0.26329    0.13621    0.89470    1.000
    N1455    N        0.24596    0.29629    0.05840    1.000
    Si1456   Si       0.25549    0.33798    0.04775    1.000
    N1457    N        0.26436    0.33437    0.00516    1.000
    N1458    N        0.23215    0.37091    0.06444    1.000
    Si1459   Si       0.27599    0.29361    0.09009    1.000
    Si1460   Si       0.22525    0.26875    0.02972    1.000
    Si1461   Si       0.23335    0.38797    0.10468    1.000
    N1462    N        0.24241    0.47234    0.02074    1.000
    Si1463   Si       0.25331    0.48849    0.05757    1.000
    N1464    N        0.26245    0.36202    0.12664    1.000
    N1465    N        0.27285    0.29323    0.13314    1.000
    N1466    N        0.27055    0.33053    0.19169    1.000
    Si1467   Si       0.25173    0.32994    0.15308    1.000
    Si1468   Si       0.26542    0.34690    0.23250    1.000
    Si1469   Si       0.25249    0.45546    0.15694    1.000
    N1470    N        0.24723    0.42706    0.11916    1.000
    N1471    N        0.25900    0.44809    0.20436    1.000
    N1472    N        0.25445    0.49727    0.14318    1.000
    Si1473   Si       0.24651    0.36466    0.29305    1.000
    Si1474   Si       0.26839    0.32739    0.34980    1.000
    N1475    N        0.27531    0.28418    0.34624    1.000
    N1476    N        0.23151    0.34002    0.32671    1.000
    N1477    N        0.23131    0.34342    0.25800    1.000
    Si1478   Si       0.24251    0.25754    0.35478    1.000
    Si1479   Si       0.23607    0.48630    0.32347    1.000
    N1480    N        0.24866    0.40765    0.29056    1.000
    N1481    N        0.27802    0.47467    0.32575    1.000
    Si1482   Si       0.28036    0.43369    0.30227    1.000
    N1483    N        0.22546    0.47094    0.28479    1.000
    Si1484   Si       0.26486    0.35464    0.42205    1.000
    N1485    N        0.24817    0.33666    0.45866    1.000
    N1486    N        0.24608    0.33727    0.38797    1.000
    Si1487   Si       0.26186    0.43541    0.42205    1.000
    Si1488   Si       0.24844    0.47801    0.48012    1.000
    N1489    N        0.27580    0.45414    0.45847    1.000
    N1490    N        0.26341    0.46905    0.39225    1.000
    N1491    N        0.24578    0.39453    0.42268    1.000
    N1492    N        0.25596    0.30437    0.52191    1.000
    N1493    N        0.24445    0.30482    0.59039    1.000
    Si1494   Si       0.27397    0.27226    0.59141    1.000
    N1495    N        0.24712    0.37323    0.51843    1.000
    Si1496   Si       0.26820    0.34093    0.49933    1.000
    N1497    N        0.25129    0.43127    0.56378    1.000
    Si1498   Si       0.25488    0.41509    0.52413    1.000
    N1499    N        0.23070    0.44565    0.50608    1.000
    N1500    N        0.24853    0.50004    0.56208    1.000
    Si1501   Si       0.23278    0.46487    0.58545    1.000
    N1502    N        0.22817    0.29712    0.73257    1.000
    N1503    N        0.26691    0.27094    0.68257    1.000
    N1504    N        0.25886    0.33991    0.64297    1.000
    Si1505   Si       0.25382    0.37611    0.66588    1.000
    Si1506   Si       0.22683    0.31670    0.62704    1.000
    N1507    N        0.28115    0.38264    0.69797    1.000
    N1508    N        0.26246    0.46493    0.68641    1.000
    Si1509   Si       0.26733    0.38731    0.73938    1.000
    N1510    N        0.23561    0.41636    0.73036    1.000
    N1511    N        0.22909    0.47623    0.62662    1.000
    N1512    N        0.25936    0.41205    0.64043    1.000
    Si1513   Si       0.23713    0.44633    0.65618    1.000
    Si1514   Si       0.28101    0.48451    0.72080    1.000
    Si1515   Si       0.25169    0.30616    0.82960    1.000
    N1516    N        0.25613    0.35152    0.76117    1.000
    N1517    N        0.25176    0.28211    0.79067    1.000
    Si1518   Si       0.26156    0.30981    0.75843    1.000
    Si1519   Si       0.23998    0.48468    0.78901    1.000
    N1520    N        0.24202    0.46200    0.82560    1.000
    N1521    N        0.26812    0.39670    0.84289    1.000
    Si1522   Si       0.23341    0.41828    0.82812    1.000
    N1523    N        0.27583    0.47226    0.76444    1.000
    Si1524   Si       0.27848    0.47022    0.84715    1.000
    N1525    N        0.24075    0.29081    0.86900    1.000
    Si1526   Si       0.23928    0.32053    0.97457    1.000
    N1527    N        0.25609    0.30695    0.93575    1.000
    Si1528   Si       0.22513    0.30780    0.90544    1.000
    N1529    N        0.28182    0.38907    0.96618    1.000
    Si1530   Si       0.24664    0.47327    0.92714    1.000
    N1531    N        0.25825    0.44720    0.96112    1.000
    Si1532   Si       0.23834    0.39835    0.96120    1.000
    N1533    N        0.27679    0.46680    0.89262    1.000
    Si1534   Si       0.26128    0.48508    0.98570    1.000
    N1535    N        0.24617    0.50889    0.95328    1.000
    Si1536   Si       0.25598    0.56533    0.06873    1.000
    N1537    N        0.26921    0.52848    0.04816    1.000
    N1538    N        0.25085    0.55509    0.11285    1.000
    N1539    N        0.27379    0.61300    0.01215    1.000
    N1540    N        0.22970    0.62493    0.10587    1.000
    Si1541   Si       0.23033    0.60777    0.01140    1.000
    N1542    N        0.26888    0.74062    0.10120    1.000
    Si1543   Si       0.25166    0.66255    0.10018    1.000
    Si1544   Si       0.27075    0.74683    0.00783    1.000
    Si1545   Si       0.22760    0.73515    0.08609    1.000
    N1546    N        0.24886    0.70971    0.00039    1.000
    N1547    N        0.23348    0.69164    0.07381    1.000
    Si1548   Si       0.26228    0.66634    0.99285    1.000
    N1549    N        0.26214    0.58592    0.21423    1.000
    Si1550   Si       0.24263    0.59342    0.13277    1.000
    N1551    N        0.28011    0.61028    0.14908    1.000
    Si1552   Si       0.28074    0.52999    0.13594    1.000
    Si1553   Si       0.27080    0.65059    0.16957    1.000
    N1554    N        0.26746    0.70054    0.23742    1.000
    N1555    N        0.25958    0.67774    0.13974    1.000
    N1556    N        0.23809    0.64372    0.19787    1.000
    Si1557   Si       0.23816    0.66886    0.23501    1.000
    Si1558   Si       0.25206    0.74076    0.24181    1.000
    N1559    N        0.26880    0.58400    0.28949    1.000
    Si1560   Si       0.26637    0.56447    0.25018    1.000
    Si1561   Si       0.26875    0.62611    0.29748    1.000
    N1562    N        0.23245    0.52930    0.33337    1.000
    Si1563   Si       0.23444    0.56037    0.30350    1.000
    N1564    N        0.22991    0.54023    0.26471    1.000
    N1565    N        0.25593    0.63650    0.33736    1.000
    N1566    N        0.24196    0.64332    0.26949    1.000
    N1567    N        0.24665    0.70556    0.34575    1.000
    Si1568   Si       0.27384    0.67094    0.35655    1.000
    Si1569   Si       0.25580    0.74869    0.35665    1.000
    N1570    N        0.25479    0.75428    0.28169    1.000
    N1571    N        0.25758    0.54916    0.43403    1.000
    Si1572   Si       0.26147    0.58282    0.40646    1.000
    Si1573   Si       0.23757    0.61300    0.47835    1.000
    N1574    N        0.23593    0.61487    0.43369    1.000
    N1575    N        0.22818    0.57723    0.38039    1.000
    N1576    N        0.27120    0.58668    0.49106    1.000
    N1577    N        0.27349    0.51135    0.49336    1.000
    Si1578   Si       0.28397    0.68178    0.48213    1.000
    N1579    N        0.26612    0.66993    0.40067    1.000
    N1580    N        0.24910    0.65724    0.48784    1.000
    Si1581   Si       0.23061    0.73661    0.46054    1.000
    Si1582   Si       0.23012    0.65377    0.41629    1.000
    N1583    N        0.27227    0.71831    0.45874    1.000
    N1584    N        0.23890    0.56804    0.55445    1.000
    Si1585   Si       0.23930    0.53613    0.58414    1.000
    Si1586   Si       0.27555    0.57876    0.53291    1.000
    Si1587   Si       0.26199    0.62327    0.58062    1.000
    N1588    N        0.27099    0.53561    0.61657    1.000
    N1589    N        0.25081    0.60392    0.61779    1.000
    Si1590   Si       0.27989    0.51001    0.53587    1.000
    N1591    N        0.22890    0.63109    0.55160    1.000
    N1592    N        0.27689    0.66425    0.59018    1.000
    N1593    N        0.24958    0.70989    0.52993    1.000
    N1594    N        0.24167    0.72562    0.60041    1.000
    Si1595   Si       0.23083    0.66919    0.52833    1.000
    Si1596   Si       0.28087    0.74564    0.60313    1.000
    Si1597   Si       0.24563    0.68405    0.61423    1.000
    Si1598   Si       0.27503    0.57501    0.63646    1.000
    N1599    N        0.26993    0.52563    0.72501    1.000
    Si1600   Si       0.23908    0.54918    0.70333    1.000
    N1601    N        0.26419    0.57439    0.67908    1.000
    N1602    N        0.26218    0.75822    0.70908    1.000
    Si1603   Si       0.24159    0.72190    0.72395    1.000
    N1604    N        0.26085    0.68745    0.65509    1.000
    N1605    N        0.26173    0.68450    0.72155    1.000
    Si1606   Si       0.25012    0.66012    0.68785    1.000
    N1607    N        0.25374    0.56584    0.84943    1.000
    N1608    N        0.24032    0.52683    0.78972    1.000
    Si1609   Si       0.27071    0.54339    0.81734    1.000
    Si1610   Si       0.28548    0.65561    0.81850    1.000
    N1611    N        0.25138    0.63385    0.83274    1.000
    Si1612   Si       0.24081    0.69794    0.85536    1.000
    Si1613   Si       0.27177    0.72670    0.79249    1.000
    N1614    N        0.27076    0.69639    0.82432    1.000
    N1615    N        0.23773    0.72871    0.76646    1.000
    Si1616   Si       0.27142    0.57001    0.88839    1.000
    Si1617   Si       0.24774    0.55246    0.95215    1.000
    N1618    N        0.23620    0.56159    0.91172    1.000
    N1619    N        0.22438    0.57697    0.97832    1.000
    N1620    N        0.28207    0.61159    0.89676    1.000
    Si1621   Si       0.22297    0.68391    0.93178    1.000
    N1622    N        0.25255    0.73983    0.86953    1.000
    N1623    N        0.25806    0.66173    0.94847    1.000
    Si1624   Si       0.26702    0.74244    0.91248    1.000
    Si1625   Si       0.27052    0.65154    0.90838    1.000
    N1626    N        0.23911    0.67492    0.89207    1.000
    N1627    N        0.22999    0.72767    0.93279    1.000
    N1628    N        0.25304    0.78845    0.01309    1.000
    N1629    N        0.25760    0.85765    0.11063    1.000
    Si1630   Si       0.25728    0.81326    0.11005    1.000
    N1631    N        0.23719    0.84902    0.03831    1.000
    Si1632   Si       0.27036    0.82155    0.03774    1.000
    Si1633   Si       0.28379    0.99716    0.08273    1.000
    Si1634   Si       0.22630    0.88614    0.10053    1.000
    N1635    N        0.26099    0.97965    0.04696    1.000
    N1636    N        0.24391    0.90963    0.06576    1.000
    Si1637   Si       0.27321    0.94085    0.06080    1.000
    Si1638   Si       0.23300    0.89031    0.02841    1.000
    Si1639   Si       0.23844    0.00180    0.01608    1.000
    N1640    N        0.25346    0.90635    0.99103    1.000
    Si1641   Si       0.27106    0.81313    0.23756    1.000
    N1642    N        0.24701    0.86574    0.18045    1.000
    N1643    N        0.26802    0.79849    0.15050    1.000
    N1644    N        0.27580    0.77071    0.22089    1.000
    Si1645   Si       0.27663    0.83636    0.17211    1.000
    N1646    N        0.22728    0.81821    0.22768    1.000
    N1647    N        0.23973    0.88247    0.24430    1.000
    N1648    N        0.22210    0.99205    0.16597    1.000
    Si1649   Si       0.24610    0.90650    0.16314    1.000
    Si1650   Si       0.24550    0.92420    0.23662    1.000
    N1651    N        0.24084    0.93689    0.19531    1.000
    Si1652   Si       0.25546    0.97805    0.19068    1.000
    Si1653   Si       0.24770    0.86763    0.28459    1.000
    N1654    N        0.27462    0.83336    0.27727    1.000
    N1655    N        0.25738    0.97526    0.29910    1.000
    N1656    N        0.26554    0.90343    0.30287    1.000
    Si1657   Si       0.23545    0.93686    0.29940    1.000
    N1658    N        0.26526    0.90692    0.36974    1.000
    N1659    N        0.28379    0.93963    0.24544    1.000
    N1660    N        0.27502    0.83641    0.37162    1.000
    N1661    N        0.25004    0.77697    0.46571    1.000
    Si1662   Si       0.23674    0.78331    0.42176    1.000
    Si1663   Si       0.27448    0.87284    0.39426    1.000
    N1664    N        0.24239    0.87221    0.42279    1.000
    N1665    N        0.26671    0.76319    0.39833    1.000
    Si1666   Si       0.24896    0.89705    0.45860    1.000
    N1667    N        0.26450    0.99748    0.41667    1.000
    N1668    N        0.26192    0.94045    0.45549    1.000
    Si1669   Si       0.23822    0.96405    0.43148    1.000
    Si1670   Si       0.24149    0.80874    0.59846    1.000
    N1671    N        0.27159    0.78256    0.58254    1.000
    Si1672   Si       0.24035    0.80227    0.50126    1.000
    N1673    N        0.27730    0.81932    0.51861    1.000
    N1674    N        0.25918    0.88271    0.54043    1.000
    N1675    N        0.26032    0.93353    0.59629    1.000
    Si1676   Si       0.26772    0.92388    0.55455    1.000
    N1677    N        0.26560    0.99893    0.56302    1.000
    N1678    N        0.23173    0.94393    0.53510    1.000
    Si1679   Si       0.22155    0.93346    0.61749    1.000
    N1680    N        0.26120    0.83525    0.62986    1.000
    Si1681   Si       0.25531    0.86041    0.70428    1.000
    Si1682   Si       0.24981    0.79272    0.73265    1.000
    N1683    N        0.23108    0.82667    0.70940    1.000
    Si1684   Si       0.22747    0.86136    0.63890    1.000
    N1685    N        0.24368    0.88480    0.66992    1.000
    N1686    N        0.25900    0.00234    0.65819    1.000
    N1687    N        0.24491    0.89423    0.73263    1.000
    Si1688   Si       0.22984    0.98015    0.68153    1.000
    N1689    N        0.24280    0.96098    0.71826    1.000
    Si1690   Si       0.22784    0.91803    0.69552    1.000
    N1691    N        0.22102    0.94436    0.65914    1.000
    N1692    N        0.25752    0.80908    0.86084    1.000
    Si1693   Si       0.25352    0.77243    0.83874    1.000
    N1694    N        0.27822    0.87199    0.86902    1.000
    N1695    N        0.28064    0.76895    0.80613    1.000
    N1696    N        0.28497    0.80960    0.74980    1.000
    N1697    N        0.26054    0.89594    0.80632    1.000
    Si1698   Si       0.24926    0.96059    0.82656    1.000
    N1699    N        0.23876    0.95321    0.78445    1.000
    Si1700   Si       0.25809    0.91709    0.76809    1.000
    N1701    N        0.26136    0.00262    0.82129    1.000
    N1702    N        0.26695    0.78464    0.92093    1.000
    Si1703   Si       0.26130    0.79519    0.96583    1.000
    Si1704   Si       0.23358    0.80230    0.89820    1.000
    Si1705   Si       0.23995    0.87615    0.88977    1.000
    N1706    N        0.22691    0.84346    0.91199    1.000
    Si1707   Si       0.28180    0.98718    0.95215    1.000
    N1708    N        0.24403    0.98850    0.97516    1.000
    Si1709   Si       0.23795    0.95229    0.89675    1.000
    N1710    N        0.23765    0.91174    0.91595    1.000
    N1711    N        0.27347    0.97141    0.91219    1.000
    Si1712   Si       0.22776    0.91287    0.95725    1.000
    N1713    N        0.31403    0.07154    0.08581    1.000
    Si1714   Si       0.30819    0.10786    0.06307    1.000
    N1715    N        0.31518    0.01370    0.05814    1.000
    N1716    N        0.33378    0.09090    0.03097    1.000
    Si1717   Si       0.33504    0.05157    0.05350    1.000
    Si1718   Si       0.28899    0.05845    0.11912    1.000
    N1719    N        0.32782    0.14036    0.08263    1.000
    Si1720   Si       0.30456    0.17447    0.10155    1.000
    N1721    N        0.30112    0.22797    0.00824    1.000
    Si1722   Si       0.32584    0.24219    0.11362    1.000
    N1723    N        0.33653    0.20440    0.09853    1.000
    Si1724   Si       0.31762    0.25513    0.03921    1.000
    N1725    N        0.31538    0.10559    0.17594    1.000
    N1726    N        0.32005    0.04175    0.21982    1.000
    N1727    N        0.31573    0.03926    0.14771    1.000
    Si1728   Si       0.30913    0.08209    0.21369    1.000
    Si1729   Si       0.31542    0.01464    0.18348    1.000
    N1730    N        0.33678    0.11074    0.23406    1.000
    N1731    N        0.29627    0.16023    0.14195    1.000
    Si1732   Si       0.31015    0.19228    0.17166    1.000
    N1733    N        0.30298    0.23003    0.14845    1.000
    N1734    N        0.28265    0.20024    0.20463    1.000
    Si1735   Si       0.29137    0.18716    0.24550    1.000
    N1736    N        0.31492    0.07978    0.34218    1.000
    Si1737   Si       0.32196    0.03209    0.26304    1.000
    N1738    N        0.29739    0.01387    0.34381    1.000
    Si1739   Si       0.30497    0.04756    0.36830    1.000
    N1740    N        0.29620    0.16701    0.31271    1.000
    N1741    N        0.31366    0.23679    0.31420    1.000
    N1742    N        0.33413    0.20033    0.25540    1.000
    Si1743   Si       0.32900    0.16598    0.34547    1.000
    N1744    N        0.29784    0.13606    0.37099    1.000
    N1745    N        0.32788    0.02201    0.39582    1.000
    Si1746   Si       0.32336    0.02991    0.46873    1.000
    N1747    N        0.29045    0.05157    0.45163    1.000
    Si1748   Si       0.32868    0.12821    0.40137    1.000
    N1749    N        0.34560    0.08884    0.40991    1.000
    N1750    N        0.30920    0.19598    0.37329    1.000
    Si1751   Si       0.31471    0.25431    0.45337    1.000
    N1752    N        0.31321    0.14827    0.43637    1.000
    Si1753   Si       0.33591    0.22224    0.39380    1.000
    N1754    N        0.33060    0.21692    0.43606    1.000
    Si1755   Si       0.33947    0.17792    0.45598    1.000
    N1756    N        0.30605    0.05755    0.57018    1.000
    N1757    N        0.32374    0.02621    0.51373    1.000
    N1758    N        0.29255    0.11034    0.51424    1.000
    Si1759   Si       0.28026    0.08876    0.54906    1.000
    Si1760   Si       0.29670    0.15126    0.51085    1.000
    N1761    N        0.31123    0.15682    0.61551    1.000
    N1762    N        0.33261    0.17246    0.49713    1.000
    N1763    N        0.30912    0.01893    0.62064    1.000
    Si1764   Si       0.31305    0.04911    0.65248    1.000
    N1765    N        0.32380    0.01866    0.68033    1.000
    N1766    N        0.30920    0.09707    0.72746    1.000
    N1767    N        0.33462    0.07889    0.63336    1.000
    N1768    N        0.28799    0.21117    0.64676    1.000
    Si1769   Si       0.29899    0.17011    0.65725    1.000
    N1770    N        0.32910    0.26166    0.68957    1.000
    N1771    N        0.32883    0.17111    0.69022    1.000
    Si1772   Si       0.31579    0.19053    0.72637    1.000
    Si1773   Si       0.29872    0.25487    0.65626    1.000
    N1774    N        0.31540    0.11004    0.79631    1.000
    Si1775   Si       0.30772    0.06835    0.79858    1.000
    N1776    N        0.30565    0.05784    0.84116    1.000
    N1777    N        0.33503    0.04347    0.77609    1.000
    Si1778   Si       0.31973    0.12842    0.75597    1.000
    Si1779   Si       0.34004    0.06070    0.86932    1.000
    Si1780   Si       0.31284    0.13124    0.83388    1.000
    Si1781   Si       0.28425    0.02279    0.85398    1.000
    N1782    N        0.29992    0.22340    0.78962    1.000
    Si1783   Si       0.29758    0.20731    0.83159    1.000
    N1784    N        0.32358    0.19988    0.86674    1.000
    N1785    N        0.29009    0.16735    0.82075    1.000
    N1786    N        0.29005    0.16243    0.74727    1.000
    N1787    N        0.29587    0.12297    0.87140    1.000
    N1788    N        0.31572    0.05181    0.90608    1.000
    Si1789   Si       0.33357    0.04065    0.94453    1.000
    N1790    N        0.29150    0.09848    0.98414    1.000
    N1791    N        0.29143    0.02969    0.95742    1.000
    Si1792   Si       0.33479    0.09914    0.98937    1.000
    Si1793   Si       0.32389    0.22737    0.89925    1.000
    Si1794   Si       0.29042    0.14063    0.97540    1.000
    N1795    N        0.28629    0.24961    0.89859    1.000
    Si1796   Si       0.30328    0.22916    0.96384    1.000
    N1797    N        0.33420    0.14267    0.97430    1.000
    N1798    N        0.33119    0.20757    0.93812    1.000
    N1799    N        0.31583    0.36770    0.02673    1.000
    Si1800   Si       0.32621    0.33015    0.04700    1.000
    N1801    N        0.29482    0.33083    0.07679    1.000
    Si1802   Si       0.30287    0.36447    0.10624    1.000
    N1803    N        0.32876    0.29562    0.02277    1.000
    N1804    N        0.30645    0.26240    0.08115    1.000
    N1805    N        0.31171    0.43850    0.01321    1.000
    Si1806   Si       0.32238    0.49269    0.08372    1.000
    N1807    N        0.30173    0.40201    0.08404    1.000
    Si1808   Si       0.32091    0.40841    0.04444    1.000
    Si1809   Si       0.33368    0.47511    0.00761    1.000
    Si1810   Si       0.28540    0.43629    0.10594    1.000
    N1811    N        0.33679    0.50294    0.04237    1.000
    N1812    N        0.28787    0.46945    0.07944    1.000
    Si1813   Si       0.31003    0.32060    0.20199    1.000
    N1814    N        0.32244    0.28409    0.18494    1.000
    N1815    N        0.33497    0.35477    0.19388    1.000
    N1816    N        0.29950    0.32105    0.24488    1.000
    Si1817   Si       0.28371    0.26515    0.16525    1.000
    N1818    N        0.29802    0.44647    0.14882    1.000
    Si1819   Si       0.32684    0.37991    0.22598    1.000
    Si1820   Si       0.32516    0.45455    0.18169    1.000
    N1821    N        0.33040    0.41993    0.20813    1.000
    N1822    N        0.31759    0.48048    0.21567    1.000
    Si1823   Si       0.28949    0.43000    0.22714    1.000
    N1824    N        0.28229    0.38657    0.23329    1.000
    Si1825   Si       0.32004    0.33350    0.28158    1.000
    Si1826   Si       0.31668    0.27253    0.33779    1.000
    N1827    N        0.30861    0.34507    0.36095    1.000
    N1828    N        0.28894    0.35589    0.30237    1.000
    N1829    N        0.33534    0.29895    0.30518    1.000
    Si1830   Si       0.31247    0.37572    0.33185    1.000
    N1831    N        0.30058    0.44404    0.26614    1.000
    N1832    N        0.32985    0.47472    0.36140    1.000
    Si1833   Si       0.31608    0.49816    0.32758    1.000
    N1834    N        0.29852    0.41659    0.33498    1.000
    N1835    N        0.33664    0.49605    0.28829    1.000
    Si1836   Si       0.33942    0.46534    0.25546    1.000
    Si1837   Si       0.29368    0.44922    0.36887    1.000
    N1838    N        0.33861    0.26150    0.37319    1.000
    N1839    N        0.33418    0.28920    0.43618    1.000
    Si1840   Si       0.32998    0.32732    0.45524    1.000
    N1841    N        0.30841    0.34931    0.42480    1.000
    Si1842   Si       0.33848    0.34995    0.39246    1.000
    N1843    N        0.31078    0.34455    0.49273    1.000
    Si1844   Si       0.34217    0.37354    0.49161    1.000
    N1845    N        0.31998    0.26299    0.49829    1.000
    N1846    N        0.33347    0.40676    0.46321    1.000
    Si1847   Si       0.31030    0.43818    0.48055    1.000
    Si1848   Si       0.34014    0.41496    0.42136    1.000
    N1849    N        0.30257    0.42448    0.40333    1.000
    N1850    N        0.31787    0.34069    0.58506    1.000
    N1851    N        0.30520    0.27778    0.56182    1.000
    Si1852   Si       0.33846    0.37709    0.56925    1.000
    Si1853   Si       0.33854    0.29947    0.57957    1.000
    Si1854   Si       0.28580    0.27205    0.52369    1.000
    N1855    N        0.29729    0.42423    0.51955    1.000
    N1856    N        0.31162    0.40765    0.58411    1.000
    N1857    N        0.31178    0.48152    0.54432    1.000
    Si1858   Si       0.29530    0.44248    0.56203    1.000
    N1859    N        0.29093    0.46404    0.60285    1.000
    Si1860   Si       0.30312    0.50454    0.61117    1.000
    Si1861   Si       0.29582    0.33062    0.62375    1.000
    N1862    N        0.29841    0.28575    0.62561    1.000
    N1863    N        0.32650    0.35362    0.64863    1.000
    Si1864   Si       0.29472    0.26067    0.71548    1.000
    N1865    N        0.29836    0.29275    0.74167    1.000
    Si1866   Si       0.33994    0.46066    0.67015    1.000
    N1867    N        0.32905    0.49509    0.64697    1.000
    N1868    N        0.32251    0.47222    0.70957    1.000
    N1869    N        0.32556    0.42385    0.65522    1.000
    Si1870   Si       0.29650    0.42499    0.62166    1.000
    Si1871   Si       0.32308    0.38463    0.67917    1.000
    Si1872   Si       0.32868    0.33977    0.81937    1.000
    N1873    N        0.28901    0.32467    0.82612    1.000
    N1874    N        0.33484    0.37932    0.83193    1.000
    N1875    N        0.33831    0.34218    0.77631    1.000
    Si1876   Si       0.33846    0.30304    0.75591    1.000
    Si1877   Si       0.33877    0.38223    0.75630    1.000
    N1878    N        0.30147    0.40695    0.76168    1.000
    Si1879   Si       0.30746    0.41139    0.84470    1.000
    N1880    N        0.30658    0.44684    0.82213    1.000
    Si1881   Si       0.30926    0.44700    0.77825    1.000
    N1882    N        0.32790    0.33387    0.96415    1.000
    N1883    N        0.30955    0.26972    0.95439    1.000
    N1884    N        0.31529    0.31616    0.89652    1.000
    Si1885   Si       0.29200    0.28610    0.91913    1.000
    Si1886   Si       0.30039    0.35731    0.98893    1.000
    Si1887   Si       0.33560    0.29406    0.97915    1.000
    N1888    N        0.32697    0.44054    0.94707    1.000
    N1889    N        0.30048    0.49780    0.99132    1.000
    N1890    N        0.32696    0.42381    0.88141    1.000
    Si1891   Si       0.29583    0.42842    0.97344    1.000
    Si1892   Si       0.31805    0.45627    0.90702    1.000
    N1893    N        0.34021    0.49195    0.90301    1.000
    N1894    N        0.32560    0.56338    0.01259    1.000
    Si1895   Si       0.30119    0.61298    0.10923    1.000
    Si1896   Si       0.30365    0.52791    0.02206    1.000
    N1897    N        0.31538    0.52773    0.11020    1.000
    N1898    N        0.33866    0.62639    0.04351    1.000
    N1899    N        0.29235    0.58926    0.07333    1.000
    Si1900   Si       0.29596    0.63173    0.04593    1.000
    Si1901   Si       0.31909    0.70427    0.02533    1.000
    N1902    N        0.29805    0.73976    0.04114    1.000
    N1903    N        0.29421    0.67111    0.01985    1.000
    N1904    N        0.28841    0.64916    0.08563    1.000
    N1905    N        0.34085    0.59715    0.11971    1.000
    Si1906   Si       0.29438    0.58544    0.18395    1.000
    N1907    N        0.29783    0.54216    0.17410    1.000
    Si1908   Si       0.31627    0.52450    0.20848    1.000
    N1909    N        0.33577    0.59591    0.19833    1.000
    N1910    N        0.29022    0.72980    0.17351    1.000
    Si1911   Si       0.30222    0.70469    0.20618    1.000
    N1912    N        0.32287    0.70087    0.12088    1.000
    N1913    N        0.32927    0.70610    0.24150    1.000
    N1914    N        0.30676    0.66266    0.19157    1.000
    Si1915   Si       0.28397    0.71453    0.13364    1.000
    N1916    N        0.31664    0.54210    0.32617    1.000
    Si1917   Si       0.32654    0.53954    0.28185    1.000
    Si1918   Si       0.32568    0.57538    0.35224    1.000
    N1919    N        0.30135    0.53892    0.24622    1.000
    N1920    N        0.30471    0.65017    0.28723    1.000
    N1921    N        0.31087    0.71776    0.29748    1.000
    Si1922   Si       0.29824    0.69062    0.26802    1.000
    Si1923   Si       0.33462    0.64626    0.31568    1.000
    N1924    N        0.31825    0.66838    0.35291    1.000
    Si1925   Si       0.29339    0.75765    0.29962    1.000
    N1926    N        0.30312    0.58163    0.39185    1.000
    N1927    N        0.32763    0.54985    0.45566    1.000
    Si1928   Si       0.33772    0.57344    0.41747    1.000
    Si1929   Si       0.28420    0.54731    0.46855    1.000
    N1930    N        0.31061    0.66872    0.44986    1.000
    N1931    N        0.31827    0.71996    0.39834    1.000
    Si1932   Si       0.29116    0.69880    0.42365    1.000
    N1933    N        0.30083    0.54668    0.54356    1.000
    N1934    N        0.29433    0.61238    0.55457    1.000
    Si1935   Si       0.33773    0.61539    0.54958    1.000
    N1936    N        0.33733    0.52728    0.59586    1.000
    Si1937   Si       0.29233    0.72015    0.53829    1.000
    N1938    N        0.31193    0.72340    0.57908    1.000
    N1939    N        0.31230    0.69005    0.51429    1.000
    Si1940   Si       0.31708    0.68009    0.58868    1.000
    N1941    N        0.33459    0.53719    0.73089    1.000
    N1942    N        0.31414    0.58929    0.64396    1.000
    Si1943   Si       0.30147    0.59988    0.69131    1.000
    N1944    N        0.29387    0.59452    0.73438    1.000
    N1945    N        0.29402    0.75460    0.64275    1.000
    N1946    N        0.31603    0.70860    0.69144    1.000
    N1947    N        0.32973    0.67327    0.63034    1.000
    Si1948   Si       0.30323    0.67908    0.66357    1.000
    N1949    N        0.28973    0.64086    0.68200    1.000
    Si1950   Si       0.29744    0.74860    0.68629    1.000
    Si1951   Si       0.30023    0.67729    0.74383    1.000
    Si1952   Si       0.30845    0.60657    0.77608    1.000
    N1953    N        0.29781    0.56436    0.78901    1.000
    N1954    N        0.29029    0.51223    0.84026    1.000
    Si1955   Si       0.32443    0.51724    0.86905    1.000
    Si1956   Si       0.29628    0.55107    0.74726    1.000
    N1957    N        0.32032    0.63138    0.83468    1.000
    N1958    N        0.30699    0.71636    0.76823    1.000
    N1959    N        0.29114    0.64786    0.77516    1.000
    N1960    N        0.33641    0.60637    0.96399    1.000
    Si1961   Si       0.30298    0.59377    0.98777    1.000
    Si1962   Si       0.32215    0.57537    0.92596    1.000
    N1963    N        0.31098    0.55299    0.89098    1.000
    N1964    N        0.28797    0.57046    0.95296    1.000
    Si1965   Si       0.32022    0.62670    0.87842    1.000
    N1966    N        0.30796    0.72809    0.91776    1.000
    Si1967   Si       0.32791    0.74732    0.95455    1.000
    Si1968   Si       0.33770    0.69673    0.90855    1.000
    N1969    N        0.33629    0.71655    0.98790    1.000
    N1970    N        0.30844    0.66870    0.89180    1.000
    N1971    N        0.30331    0.84859    0.02527    1.000
    Si1972   Si       0.29905    0.76342    0.07793    1.000
    N1973    N        0.32490    0.87408    0.08910    1.000
    N1974    N        0.34186    0.75983    0.08627    1.000
    Si1975   Si       0.29672    0.87622    0.12069    1.000
    N1976    N        0.28468    0.80424    0.07505    1.000
    Si1977   Si       0.32239    0.88317    0.04772    1.000
    N1978    N        0.30222    0.91995    0.03635    1.000
    N1979    N        0.29191    0.95701    0.09751    1.000
    Si1980   Si       0.33277    0.85142    0.21578    1.000
    Si1981   Si       0.29181    0.77390    0.18120    1.000
    N1982    N        0.31155    0.84811    0.14937    1.000
    N1983    N        0.29862    0.82723    0.20706    1.000
    N1984    N        0.33453    0.78098    0.17041    1.000
    N1985    N        0.28496    0.91027    0.14343    1.000
    N1986    N        0.29188    0.97848    0.16779    1.000
    Si1987   Si       0.32316    0.92474    0.23488    1.000
    Si1988   Si       0.30507    0.94787    0.13908    1.000
    N1989    N        0.32507    0.89257    0.20776    1.000
    Si1990   Si       0.31680    0.82544    0.28585    1.000
    N1991    N        0.32200    0.78271    0.27751    1.000
    N1992    N        0.32787    0.83440    0.32560    1.000
    Si1993   Si       0.30225    0.81011    0.35393    1.000
    N1994    N        0.28714    0.77184    0.33851    1.000
    N1995    N        0.34235    0.84620    0.25779    1.000
    N1996    N        0.32464    0.99012    0.27004    1.000
    Si1997   Si       0.32271    0.98043    0.35642    1.000
    N1998    N        0.30716    0.95162    0.32563    1.000
    Si1999   Si       0.29591    0.95961    0.28346    1.000
    N2000    N        0.33776    0.90289    0.34305    1.000
    Si2001   Si       0.29365    0.91032    0.33629    1.000
    N2002    N        0.33995    0.92602    0.27550    1.000
    N2003    N        0.28344    0.87825    0.47612    1.000
    Si2004   Si       0.28849    0.75880    0.47313    1.000
    Si2005   Si       0.31037    0.76241    0.40443    1.000
    N2006    N        0.31872    0.77483    0.44772    1.000
    N2007    N        0.33104    0.79371    0.38418    1.000
    Si2008   Si       0.32051    0.88054    0.45122    1.000
    N2009    N        0.34045    0.84390    0.46240    1.000
    Si2010   Si       0.30294    0.94914    0.47293    1.000
    N2011    N        0.31547    0.98836    0.45835    1.000
    N2012    N        0.31266    0.88236    0.40828    1.000
    N2013    N        0.32076    0.95489    0.39340    1.000
    Si2014   Si       0.33475    0.91336    0.38758    1.000
    N2015    N        0.33295    0.92300    0.45713    1.000
    Si2016   Si       0.30710    0.99009    0.41517    1.000
    Si2017   Si       0.29476    0.79334    0.54736    1.000
    N2018    N        0.33270    0.86162    0.52566    1.000
    N2019    N        0.33308    0.79625    0.56860    1.000
    Si2020   Si       0.29081    0.86039    0.51416    1.000
    N2021    N        0.29928    0.75859    0.51813    1.000
    N2022    N        0.31146    0.91872    0.56824    1.000
    N2023    N        0.30240    0.95825    0.51657    1.000
    Si2024   Si       0.30156    0.92322    0.60882    1.000
    Si2025   Si       0.33430    0.95042    0.54481    1.000
    Si2026   Si       0.28783    0.99923    0.52460    1.000
    Si2027   Si       0.34097    0.99018    0.61001    1.000
    N2028    N        0.34782    0.98554    0.56585    1.000
    N2029    N        0.29430    0.84589    0.69252    1.000
    N2030    N        0.32637    0.81879    0.63163    1.000
    N2031    N        0.33309    0.77352    0.69057    1.000
    Si2032   Si       0.31253    0.83589    0.73076    1.000
    Si2033   Si       0.33255    0.77818    0.64535    1.000
    Si2034   Si       0.29824    0.84850    0.64835    1.000
    Si2035   Si       0.29896    0.98556    0.65767    1.000
    N2036    N        0.31802    0.95759    0.62744    1.000
    Si2037   Si       0.28528    0.96428    0.72802    1.000
    N2038    N        0.31283    0.88844    0.63558    1.000
    N2039    N        0.30431    0.95618    0.68910    1.000
    Si2040   Si       0.33374    0.90703    0.74353    1.000
    Si2041   Si       0.30618    0.79640    0.78681    1.000
    N2042    N        0.31132    0.82949    0.81394    1.000
    N2043    N        0.32407    0.86806    0.75925    1.000
    Si2044   Si       0.29466    0.83252    0.85607    1.000
    Si2045   Si       0.33969    0.85841    0.79689    1.000
    N2046    N        0.33915    0.77804    0.76758    1.000
    N2047    N        0.33016    0.89097    0.82905    1.000
    Si2048   Si       0.32521    0.99970    0.77461    1.000
    N2049    N        0.28628    0.99745    0.75596    1.000
    Si2050   Si       0.28894    0.89953    0.83723    1.000
    N2051    N        0.31459    0.99207    0.86380    1.000
    N2052    N        0.29872    0.92904    0.75212    1.000
    N2053    N        0.28157    0.93965    0.85013    1.000
    Si2054   Si       0.31814    0.85080    0.98550    1.000
    Si2055   Si       0.30653    0.80814    0.92703    1.000
    N2056    N        0.32096    0.82318    0.89030    1.000
    N2057    N        0.29096    0.82804    0.96182    1.000
    N2058    N        0.34059    0.78829    0.94476    1.000
    N2059    N        0.28819    0.76014    0.97198    1.000
    Si2060   Si       0.33496    0.92490    0.94835    1.000
    Si2061   Si       0.30348    0.95621    0.88350    1.000
    N2062    N        0.30705    0.95758    0.97283    1.000
    N2063    N        0.31791    0.89264    0.96915    1.000
    N2064    N        0.33538    0.94175    0.91033    1.000
    Si2065   Si       0.29454    0.92050    0.99339    1.000
    N2066    N        0.37551    0.03593    0.05859    1.000
    N2067    N        0.39525    0.10405    0.06925    1.000
    Si2068   Si       0.39861    0.01982    0.02276    1.000
    Si2069   Si       0.40057    0.06190    0.08524    1.000
    Si2070   Si       0.37184    0.13898    0.08202    1.000
    Si2071   Si       0.36924    0.20962    0.07042    1.000
    N2072    N        0.35941    0.23965    0.04035    1.000
    N2073    N        0.38608    0.17242    0.05706    1.000
    Si2074   Si       0.38309    0.24629    0.00359    1.000
    N2075    N        0.38804    0.14842    0.11986    1.000
    N2076    N        0.39006    0.12718    0.19486    1.000
    N2077    N        0.38840    0.05296    0.12528    1.000
    Si2078   Si       0.34749    0.12976    0.19513    1.000
    Si2079   Si       0.35563    0.02787    0.13666    1.000
    Si2080   Si       0.39161    0.01030    0.20862    1.000
    Si2081   Si       0.36432    0.18070    0.23069    1.000
    N2082    N        0.40008    0.20616    0.22656    1.000
    N2083    N        0.34261    0.17231    0.19304    1.000
    N2084    N        0.38317    0.08046    0.34809    1.000
    Si2085   Si       0.39412    0.11907    0.36359    1.000
    Si2086   Si       0.35172    0.08177    0.32017    1.000
    Si2087   Si       0.39052    0.04033    0.27765    1.000
    N2088    N        0.34864    0.05340    0.28850    1.000
    N2089    N        0.35735    0.12008    0.30159    1.000
    Si2090   Si       0.36972    0.11335    0.26119    1.000
    N2091    N        0.39916    0.07931    0.26129    1.000
    N2092    N        0.38361    0.00852    0.25072    1.000
    Si2093   Si       0.34676    0.22213    0.29319    1.000
    N2094    N        0.38640    0.15416    0.26016    1.000
    N2095    N        0.38223    0.24872    0.29904    1.000
    Si2096   Si       0.38665    0.15739    0.30382    1.000
    N2097    N        0.35708    0.18687    0.31781    1.000
    N2098    N        0.36280    0.04123    0.45352    1.000
    Si2099   Si       0.39070    0.06040    0.47968    1.000
    Si2100   Si       0.36029    0.04771    0.41050    1.000
    N2101    N        0.38762    0.10134    0.48269    1.000
    N2102    N        0.39702    0.03011    0.39200    1.000
    N2103    N        0.36038    0.14618    0.37552    1.000
    N2104    N        0.37620    0.20761    0.38703    1.000
    Si2105   Si       0.39445    0.16892    0.40452    1.000
    N2106    N        0.37909    0.16291    0.44742    1.000
    N2107    N        0.37072    0.04657    0.58215    1.000
    N2108    N        0.38957    0.03637    0.51788    1.000
    Si2109   Si       0.35582    0.02524    0.54464    1.000
    N2110    N        0.38067    0.13340    0.62468    1.000
    Si2111   Si       0.39904    0.03298    0.61339    1.000
    Si2112   Si       0.33838    0.07358    0.59002    1.000
    N2113    N        0.33963    0.11217    0.57153    1.000
    Si2114   Si       0.36571    0.18090    0.52565    1.000
    N2115    N        0.36785    0.22542    0.53189    1.000
    N2116    N        0.36365    0.17568    0.56968    1.000
    Si2117   Si       0.38204    0.21401    0.57178    1.000
    N2118    N        0.37046    0.23598    0.60802    1.000
    Si2119   Si       0.34868    0.14493    0.59698    1.000
    N2120    N        0.37740    0.04460    0.71392    1.000
    Si2121   Si       0.37118    0.09938    0.64992    1.000
    N2122    N        0.37529    0.11292    0.69106    1.000
    N2123    N        0.39824    0.06529    0.64449    1.000
    Si2124   Si       0.40021    0.08347    0.71360    1.000
    Si2125   Si       0.39052    0.21219    0.73133    1.000
    Si2126   Si       0.36452    0.15183    0.70786    1.000
    N2127    N        0.39647    0.18233    0.70185    1.000
    N2128    N        0.34738    0.21551    0.74007    1.000
    N2129    N        0.39989    0.25301    0.72690    1.000
    N2130    N        0.36484    0.03217    0.84696    1.000
    Si2131   Si       0.38882    0.11529    0.85679    1.000
    Si2132   Si       0.37603    0.04631    0.75864    1.000
    N2133    N        0.39693    0.08691    0.75613    1.000
    N2134    N        0.40234    0.03000    0.78828    1.000
    N2135    N        0.35428    0.14106    0.84526    1.000
    Si2136   Si       0.38556    0.16879    0.78319    1.000
    Si2137   Si       0.36039    0.18499    0.84973    1.000
    N2138    N        0.35864    0.19492    0.80708    1.000
    N2139    N        0.35887    0.14991    0.75113    1.000
    Si2140   Si       0.34135    0.22808    0.78172    1.000
    N2141    N        0.37223    0.08599    0.88595    1.000
    N2142    N        0.35615    0.07562    0.95676    1.000
    Si2143   Si       0.38813    0.07645    0.92711    1.000
    N2144    N        0.35048    0.25770    0.88852    1.000
    N2145    N        0.38759    0.20337    0.87723    1.000
    N2146    N        0.39157    0.16197    0.93702    1.000
    Si2147   Si       0.35896    0.17789    0.96037    1.000
    N2148    N        0.38101    0.20009    0.99054    1.000
    Si2149   Si       0.39134    0.24457    0.87350    1.000
    N2150    N        0.36195    0.34028    0.06691    1.000
    Si2151   Si       0.37177    0.37986    0.09006    1.000
    N2152    N        0.36315    0.41085    0.05513    1.000
    N2153    N        0.35782    0.47722    0.09990    1.000
    Si2154   Si       0.38980    0.44889    0.09068    1.000
    Si2155   Si       0.39115    0.42742    0.02397    1.000
    N2156    N        0.38673    0.41494    0.11463    1.000
    Si2157   Si       0.36173    0.27781    0.16856    1.000
    N2158    N        0.38185    0.31831    0.17175    1.000
    Si2159   Si       0.36562    0.35696    0.16121    1.000
    N2160    N        0.34289    0.36576    0.12377    1.000
    N2161    N        0.39054    0.26219    0.19655    1.000
    N2162    N        0.36283    0.25916    0.12977    1.000
    N2163    N        0.37968    0.47443    0.23425    1.000
    N2164    N        0.36052    0.47716    0.16761    1.000
    Si2165   Si       0.38172    0.49980    0.20038    1.000
    Si2166   Si       0.38276    0.49352    0.13551    1.000
    Si2167   Si       0.37669    0.29130    0.29381    1.000
    N2168    N        0.39349    0.30684    0.25466    1.000
    N2169    N        0.34510    0.36507    0.26241    1.000
    N2170    N        0.35592    0.38173    0.32518    1.000
    Si2171   Si       0.37292    0.38899    0.28590    1.000
    N2172    N        0.39468    0.44109    0.35755    1.000
    Si2173   Si       0.38048    0.39885    0.35890    1.000
    N2174    N        0.37184    0.43188    0.27746    1.000
    Si2175   Si       0.36125    0.28332    0.40267    1.000
    N2176    N        0.36724    0.34890    0.46427    1.000
    N2177    N        0.36895    0.32084    0.38239    1.000
    N2178    N        0.39637    0.27613    0.49214    1.000
    N2179    N        0.39764    0.26471    0.41901    1.000
    Si2180   Si       0.37772    0.46854    0.45980    1.000
    Si2181   Si       0.37028    0.47011    0.38025    1.000
    N2182    N        0.36527    0.45300    0.42131    1.000
    N2183    N        0.34570    0.46487    0.48745    1.000
    N2184    N        0.35827    0.38805    0.39382    1.000
    N2185    N        0.39339    0.50535    0.37551    1.000
    N2186    N        0.36760    0.29321    0.54714    1.000
    N2187    N        0.36743    0.30525    0.61131    1.000
    N2188    N        0.37040    0.37518    0.59718    1.000
    Si2189   Si       0.36088    0.26415    0.51379    1.000
    N2190    N        0.35784    0.38001    0.53045    1.000
    N2191    N        0.37847    0.47317    0.55621    1.000
    Si2192   Si       0.35046    0.48290    0.52580    1.000
    Si2193   Si       0.39006    0.27146    0.62392    1.000
    Si2194   Si       0.36262    0.34530    0.62796    1.000
    Si2195   Si       0.36820    0.27175    0.69999    1.000
    N2196    N        0.39121    0.34965    0.66516    1.000
    Si2197   Si       0.37924    0.34770    0.70837    1.000
    N2198    N        0.36434    0.30883    0.72119    1.000
    N2199    N        0.34683    0.37788    0.71436    1.000
    N2200    N        0.39533    0.27436    0.66667    1.000
    N2201    N        0.39037    0.50366    0.72652    1.000
    N2202    N        0.38584    0.46451    0.67175    1.000
    Si2203   Si       0.35032    0.49521    0.73486    1.000
    N2204    N        0.39875    0.50815    0.61844    1.000
    Si2205   Si       0.37817    0.28779    0.81126    1.000
    N2206    N        0.35719    0.31286    0.84008    1.000
    N2207    N        0.34866    0.27074    0.78487    1.000
    Si2208   Si       0.37408    0.39055    0.81902    1.000
    Si2209   Si       0.36562    0.49586    0.80507    1.000
    N2210    N        0.36378    0.40931    0.78131    1.000
    Si2211   Si       0.38256    0.44710    0.77131    1.000
    N2212    N        0.39179    0.40982    0.85597    1.000
    N2213    N        0.34635    0.47285    0.77155    1.000
    N2214    N        0.37977    0.31430    0.91611    1.000
    N2215    N        0.36436    0.37404    0.91075    1.000
    Si2216   Si       0.35394    0.30048    0.88237    1.000
    N2217    N        0.37425    0.27325    0.97092    1.000
    Si2218   Si       0.33829    0.34251    0.92235    1.000
    Si2219   Si       0.36718    0.43213    0.95866    1.000
    N2220    N        0.37258    0.39888    0.98761    1.000
    N2221    N        0.38781    0.43366    0.92207    1.000
    Si2222   Si       0.36691    0.41056    0.89013    1.000
    N2223    N        0.37514    0.46035    0.99353    1.000
    N2224    N        0.36590    0.55988    0.06937    1.000
    Si2225   Si       0.37634    0.52389    0.04324    1.000
    N2226    N        0.38438    0.58857    0.01026    1.000
    Si2227   Si       0.34729    0.55673    0.11023    1.000
    Si2228   Si       0.35262    0.58657    0.03856    1.000
    N2229    N        0.37931    0.52448    0.00015    1.000
    N2230    N        0.38321    0.64531    0.08985    1.000
    Si2231   Si       0.36989    0.65772    0.04953    1.000
    Si2232   Si       0.35038    0.71896    0.09133    1.000
    N2233    N        0.35225    0.69679    0.05308    1.000
    N2234    N        0.38436    0.70988    0.11525    1.000
    N2235    N        0.39921    0.65435    0.01891    1.000
    N2236    N        0.38212    0.53705    0.12615    1.000
    Si2237   Si       0.37471    0.62291    0.12608    1.000
    N2238    N        0.35937    0.53479    0.20822    1.000
    Si2239   Si       0.36271    0.57324    0.22475    1.000
    N2240    N        0.37074    0.65102    0.22512    1.000
    Si2241   Si       0.36731    0.69576    0.22621    1.000
    N2242    N        0.36015    0.71521    0.18445    1.000
    Si2243   Si       0.35745    0.69421    0.14631    1.000
    N2244    N        0.36124    0.65210    0.15548    1.000
    Si2245   Si       0.34376    0.63855    0.19249    1.000
    N2246    N        0.35558    0.56855    0.26647    1.000
    Si2247   Si       0.37790    0.58963    0.29996    1.000
    Si2248   Si       0.39430    0.54620    0.36103    1.000
    N2249    N        0.34275    0.60596    0.32493    1.000
    N2250    N        0.38025    0.73991    0.28191    1.000
    N2251    N        0.36696    0.67371    0.30363    1.000
    N2252    N        0.36322    0.72326    0.34802    1.000
    Si2253   Si       0.35341    0.71523    0.30692    1.000
    Si2254   Si       0.39791    0.74462    0.36459    1.000
    N2255    N        0.36026    0.56546    0.37806    1.000
    Si2256   Si       0.37366    0.61407    0.47674    1.000
    N2257    N        0.39190    0.57519    0.48021    1.000
    Si2258   Si       0.36217    0.54031    0.48013    1.000
    N2259    N        0.34943    0.60787    0.43992    1.000
    N2260    N        0.38564    0.51179    0.45834    1.000
    Si2261   Si       0.34580    0.69428    0.37587    1.000
    N2262    N        0.40241    0.73288    0.48144    1.000
    N2263    N        0.38995    0.73932    0.40700    1.000
    Si2264   Si       0.34758    0.65096    0.43606    1.000
    N2265    N        0.36868    0.66912    0.40421    1.000
    N2266    N        0.38661    0.65532    0.46188    1.000
    N2267    N        0.36211    0.58272    0.56233    1.000
    N2268    N        0.36000    0.52462    0.52086    1.000
    N2269    N        0.34717    0.62637    0.50839    1.000
    Si2270   Si       0.34290    0.54387    0.55749    1.000
    N2271    N        0.38679    0.68089    0.52586    1.000
    N2272    N        0.39047    0.68853    0.60487    1.000
    Si2273   Si       0.38902    0.66551    0.56663    1.000
    N2274    N        0.37421    0.74957    0.54591    1.000
    Si2275   Si       0.34523    0.75281    0.57708    1.000
    Si2276   Si       0.34741    0.66768    0.52083    1.000
    N2277    N        0.34481    0.65597    0.56591    1.000
    N2278    N        0.37021    0.55233    0.66497    1.000
    Si2279   Si       0.36071    0.52226    0.63386    1.000
    Si2280   Si       0.35605    0.59304    0.65576    1.000
    N2281    N        0.38308    0.62455    0.64135    1.000
    Si2282   Si       0.36451    0.55898    0.70940    1.000
    N2283    N        0.34747    0.60045    0.69976    1.000
    Si2284   Si       0.36326    0.62843    0.73296    1.000
    N2285    N        0.39975    0.56894    0.73196    1.000
    N2286    N        0.37869    0.69084    0.67493    1.000
    N2287    N        0.34023    0.66587    0.73174    1.000
    N2288    N        0.36918    0.73193    0.73615    1.000
    Si2289   Si       0.37279    0.66813    0.63804    1.000
    Si2290   Si       0.35414    0.69876    0.70806    1.000
    N2291    N        0.37523    0.58781    0.83656    1.000
    Si2292   Si       0.35936    0.62275    0.81715    1.000
    Si2293   Si       0.38420    0.54715    0.82684    1.000
    N2294    N        0.35250    0.61526    0.77429    1.000
    N2295    N        0.38308    0.53152    0.78653    1.000
    N2296    N        0.35629    0.51830    0.84014    1.000
    N2297    N        0.37169    0.72317    0.80643    1.000
    Si2298   Si       0.38770    0.69484    0.83973    1.000
    N2299    N        0.38915    0.65274    0.83143    1.000
    Si2300   Si       0.34545    0.73472    0.77407    1.000
    N2301    N        0.35305    0.54741    0.94525    1.000
    N2302    N        0.35166    0.60564    0.90230    1.000
    Si2303   Si       0.38397    0.58654    0.87995    1.000
    Si2304   Si       0.37301    0.51927    0.91946    1.000
    Si2305   Si       0.36130    0.56183    0.98514    1.000
    N2306    N        0.39468    0.54639    0.89287    1.000
    Si2307   Si       0.36363    0.62817    0.94093    1.000
    Si2308   Si       0.38964    0.73805    0.89328    1.000
    N2309    N        0.36508    0.70422    0.87665    1.000
    N2310    N        0.35710    0.67028    0.93875    1.000
    N2311    N        0.37130    0.73155    0.93632    1.000
    Si2312   Si       0.37001    0.69850    0.96687    1.000
    Si2313   Si       0.37183    0.79327    0.08670    1.000
    Si2314   Si       0.38130    0.84923    0.02284    1.000
    N2315    N        0.37466    0.82591    0.05736    1.000
    Si2316   Si       0.36588    0.85513    0.09060    1.000
    N2317    N        0.36776    0.82420    0.12042    1.000
    N2318    N        0.36403    0.88659    0.03521    1.000
    N2319    N        0.39350    0.88805    0.09292    1.000
    N2320    N        0.36715    0.94973    0.06894    1.000
    Si2321   Si       0.36990    0.95642    0.11063    1.000
    N2322    N        0.35517    0.99626    0.10757    1.000
    N2323    N        0.36420    0.99229    0.01743    1.000
    Si2324   Si       0.35425    0.99156    0.06242    1.000
    Si2325   Si       0.38868    0.91496    0.05822    1.000
    N2326    N        0.36698    0.83759    0.18957    1.000
    N2327    N        0.37914    0.78290    0.22304    1.000
    Si2328   Si       0.34450    0.82091    0.15632    1.000
    Si2329   Si       0.39980    0.82168    0.21380    1.000
    Si2330   Si       0.37125    0.75823    0.18774    1.000
    N2331    N        0.34784    0.94474    0.14707    1.000
    N2332    N        0.35023    0.95706    0.22044    1.000
    N2333    N        0.35828    0.00631    0.17748    1.000
    Si2334   Si       0.36778    0.96161    0.18121    1.000
    Si2335   Si       0.36352    0.77562    0.26281    1.000
    Si2336   Si       0.38314    0.84800    0.27184    1.000
    Si2337   Si       0.35674    0.86458    0.33730    1.000
    N2338    N        0.38685    0.80484    0.28510    1.000
    N2339    N        0.38759    0.87078    0.30857    1.000
    N2340    N        0.39801    0.78733    0.35231    1.000
    N2341    N        0.36286    0.97242    0.34522    1.000
    Si2342   Si       0.36255    0.96980    0.26364    1.000
    Si2343   Si       0.35178    0.93688    0.31823    1.000
    N2344    N        0.39126    0.95611    0.29283    1.000
    Si2345   Si       0.40005    0.98359    0.32717    1.000
    N2346    N        0.37192    0.84999    0.37521    1.000
    Si2347   Si       0.37240    0.80703    0.38036    1.000
    N2348    N        0.38624    0.80781    0.42307    1.000
    Si2349   Si       0.35313    0.80259    0.45107    1.000
    Si2350   Si       0.39977    0.87812    0.39264    1.000
    N2351    N        0.37244    0.79742    0.49201    1.000
    N2352    N        0.40178    0.96900    0.42656    1.000
    Si2353   Si       0.37170    0.93646    0.43978    1.000
    N2354    N        0.37448    0.91008    0.40492    1.000
    N2355    N        0.39792    0.93012    0.47403    1.000
    N2356    N        0.35867    0.86606    0.58850    1.000
    Si2357   Si       0.35272    0.82176    0.59681    1.000
    N2358    N        0.39539    0.81167    0.60940    1.000
    Si2359   Si       0.39386    0.76429    0.50988    1.000
    Si2360   Si       0.36140    0.83975    0.50100    1.000
    N2361    N        0.39526    0.86758    0.49857    1.000
    N2362    N        0.35904    0.75792    0.61863    1.000
    Si2363   Si       0.40183    0.77064    0.62032    1.000
    N2364    N        0.36832    0.92019    0.53994    1.000
    Si2365   Si       0.39986    0.90987    0.51234    1.000
    Si2366   Si       0.34482    0.88801    0.55566    1.000
    Si2367   Si       0.35843    0.77973    0.72515    1.000
    N2368    N        0.35718    0.82668    0.72172    1.000
    N2369    N        0.37938    0.86033    0.65615    1.000
    Si2370   Si       0.37235    0.86533    0.69910    1.000
    N2371    N        0.40334    0.78368    0.72596    1.000
    Si2372   Si       0.35830    0.00723    0.70163    1.000
    N2373    N        0.37323    0.96694    0.68609    1.000
    N2374    N        0.37948    0.99376    0.62597    1.000
    N2375    N        0.35245    0.99073    0.73930    1.000
    Si2376   Si       0.35832    0.88510    0.62781    1.000
    N2377    N        0.37220    0.92400    0.64026    1.000
    Si2378   Si       0.39738    0.96041    0.64790    1.000
    Si2379   Si       0.38057    0.95920    0.72999    1.000
    N2380    N        0.34563    0.90036    0.70132    1.000
    Si2381   Si       0.34135    0.93586    0.67228    1.000
    N2382    N        0.37391    0.84280    0.85430    1.000
    N2383    N        0.38285    0.84426    0.78770    1.000
    Si2384   Si       0.39664    0.82367    0.82537    1.000
    Si2385   Si       0.39867    0.82742    0.74577    1.000
    N2386    N        0.34697    0.97369    0.80398    1.000
    Si2387   Si       0.36888    0.88873    0.84947    1.000
    Si2388   Si       0.38220    0.94312    0.79868    1.000
    N2389    N        0.39417    0.90437    0.81930    1.000
    N2390    N        0.37131    0.92707    0.75851    1.000
    Si2391   Si       0.35185    0.99138    0.84245    1.000
    N2392    N        0.37955    0.96775    0.86459    1.000
    N2393    N        0.37233    0.77576    0.87927    1.000
    N2394    N        0.38483    0.83325    0.92066    1.000
    N2395    N        0.35948    0.83655    0.98671    1.000
    Si2396   Si       0.36268    0.81674    0.88685    1.000
    Si2397   Si       0.37660    0.81030    0.95698    1.000
    Si2398   Si       0.39758    0.00023    0.94271    1.000
    N2399    N        0.35468    0.00324    0.95000    1.000
    Si2400   Si       0.34754    0.97518    0.98325    1.000
    Si2401   Si       0.37615    0.94420    0.89883    1.000
    N2402    N        0.36881    0.93992    0.96823    1.000
    N2403    N        0.38272    0.90048    0.88813    1.000
    N2404    N        0.44472    0.05754    0.08156    1.000
    Si2405   Si       0.41400    0.10264    0.02849    1.000
    N2406    N        0.41134    0.06141    0.01266    1.000
    N2407    N        0.40104    0.13105    0.99906    1.000
    N2408    N        0.45838    0.10959    0.03225    1.000
    N2409    N        0.44743    0.17861    0.10115    1.000
    N2410    N        0.43889    0.19131    0.02861    1.000
    Si2411   Si       0.43936    0.20655    0.07000    1.000
    N2412    N        0.40465    0.22839    0.08525    1.000
    Si2413   Si       0.40231    0.17110    0.01779    1.000
    Si2414   Si       0.42814    0.06691    0.23312    1.000
    Si2415   Si       0.41751    0.05010    0.15729    1.000
    N2416    N        0.41224    0.04782    0.19953    1.000
    N2417    N        0.45215    0.09869    0.21511    1.000
    N2418    N        0.45179    0.07457    0.14720    1.000
    N2419    N        0.43915    0.01387    0.14184    1.000
    Si2420   Si       0.40316    0.24137    0.12505    1.000
    Si2421   Si       0.43187    0.13454    0.19895    1.000
    Si2422   Si       0.41677    0.22809    0.19289    1.000
    Si2423   Si       0.42221    0.16924    0.13474    1.000
    N2424    N        0.44603    0.14536    0.16034    1.000
    N2425    N        0.40881    0.20825    0.15373    1.000
    N2426    N        0.45106    0.16318    0.22650    1.000
    N2427    N        0.44712    0.06334    0.34818    1.000
    N2428    N        0.44845    0.03834    0.26207    1.000
    Si2429   Si       0.40856    0.04828    0.35571    1.000
    N2430    N        0.40824    0.02549    0.31568    1.000
    Si2431   Si       0.45473    0.04435    0.30960    1.000
    Si2432   Si       0.42064    0.17980    0.25251    1.000
    N2433    N        0.41466    0.14156    0.33096    1.000
    N2434    N        0.42541    0.19184    0.29398    1.000
    Si2435   Si       0.42148    0.23134    0.31266    1.000
    N2436    N        0.43053    0.23670    0.35781    1.000
    Si2437   Si       0.45024    0.16351    0.31927    1.000
    N2438    N        0.45210    0.25483    0.29520    1.000
    Si2439   Si       0.45189    0.12602    0.42169    1.000
    N2440    N        0.43365    0.04913    0.47126    1.000
    N2441    N        0.41845    0.13192    0.39691    1.000
    N2442    N        0.45840    0.01166    0.42062    1.000
    Si2443   Si       0.40217    0.14121    0.47655    1.000
    Si2444   Si       0.41112    0.23064    0.39708    1.000
    N2445    N        0.44314    0.13487    0.46333    1.000
    N2446    N        0.42972    0.19581    0.41726    1.000
    Si2447   Si       0.43008    0.02577    0.50767    1.000
    N2448    N        0.44313    0.03491    0.61107    1.000
    Si2449   Si       0.46029    0.01823    0.57472    1.000
    N2450    N        0.46065    0.03774    0.53509    1.000
    N2451    N        0.44040    0.13729    0.57497    1.000
    Si2452   Si       0.43096    0.16909    0.54706    1.000
    N2453    N        0.42468    0.20453    0.56956    1.000
    Si2454   Si       0.44023    0.21920    0.61031    1.000
    Si2455   Si       0.42485    0.13891    0.61826    1.000
    N2456    N        0.40179    0.16172    0.51559    1.000
    N2457    N        0.42917    0.26281    0.60441    1.000
    Si2458   Si       0.44161    0.06897    0.65231    1.000
    N2459    N        0.45186    0.11063    0.64051    1.000
    N2460    N        0.43910    0.07634    0.69676    1.000
    Si2461   Si       0.43182    0.18553    0.67496    1.000
    N2462    N        0.43006    0.17951    0.63070    1.000
    N2463    N        0.44372    0.22634    0.67809    1.000
    Si2464   Si       0.41926    0.10054    0.78867    1.000
    N2465    N        0.42949    0.01972    0.85524    1.000
    N2466    N        0.40588    0.08619    0.82961    1.000
    N2467    N        0.45947    0.08644    0.78024    1.000
    Si2468   Si       0.40339    0.04366    0.83033    1.000
    N2469    N        0.41558    0.14239    0.79854    1.000
    Si2470   Si       0.44197    0.15358    0.83350    1.000
    N2471    N        0.41158    0.20173    0.76759    1.000
    Si2472   Si       0.45033    0.21069    0.78659    1.000
    N2473    N        0.45375    0.25545    0.78457    1.000
    N2474    N        0.46020    0.19368    0.82668    1.000
    N2475    N        0.41659    0.14630    0.86747    1.000
    N2476    N        0.42231    0.09980    0.93652    1.000
    Si2477   Si       0.44279    0.03381    0.89530    1.000
    N2478    N        0.40389    0.03651    0.91818    1.000
    Si2479   Si       0.41797    0.13516    0.96032    1.000
    Si2480   Si       0.41220    0.17670    0.90036    1.000
    N2481    N        0.45068    0.19308    0.91232    1.000
    N2482    N        0.41992    0.25549    0.90646    1.000
    N2483    N        0.41484    0.36933    0.08019    1.000
    N2484    N        0.42269    0.29982    0.07508    1.000
    Si2485   Si       0.44449    0.27501    0.04747    1.000
    Si2486   Si       0.44876    0.30180    0.11121    1.000
    N2487    N        0.40489    0.33855    0.01134    1.000
    N2488    N        0.41856    0.26863    0.01404    1.000
    Si2489   Si       0.40373    0.33508    0.05585    1.000
    Si2490   Si       0.45322    0.37042    0.10138    1.000
    Si2491   Si       0.43007    0.30760    0.99541    1.000
    N2492    N        0.40930    0.45410    0.05277    1.000
    Si2493   Si       0.43702    0.48778    0.04817    1.000
    N2494    N        0.42970    0.40653    0.01174    1.000
    N2495    N        0.43898    0.49476    0.00521    1.000
    N2496    N        0.41709    0.47076    0.11947    1.000
    N2497    N        0.43814    0.26531    0.13192    1.000
    N2498    N        0.44115    0.31545    0.19989    1.000
    Si2499   Si       0.43622    0.35210    0.17379    1.000
    N2500    N        0.44918    0.33946    0.13191    1.000
    N2501    N        0.40348    0.37958    0.16634    1.000
    Si2502   Si       0.40091    0.30339    0.21027    1.000
    Si2503   Si       0.44393    0.47724    0.15462    1.000
    Si2504   Si       0.41772    0.41578    0.14333    1.000
    N2505    N        0.45610    0.40772    0.12321    1.000
    Si2506   Si       0.45559    0.42058    0.20960    1.000
    N2507    N        0.43536    0.44101    0.17641    1.000
    N2508    N        0.42855    0.42560    0.24269    1.000
    Si2509   Si       0.42147    0.32912    0.28145    1.000
    N2510    N        0.41645    0.37354    0.36011    1.000
    N2511    N        0.41255    0.37135    0.28014    1.000
    Si2512   Si       0.40615    0.33190    0.35782    1.000
    N2513    N        0.40150    0.31643    0.31865    1.000
    Si2514   Si       0.45228    0.39338    0.34617    1.000
    N2515    N        0.45111    0.48058    0.35745    1.000
    N2516    N        0.41833    0.48328    0.29359    1.000
    N2517    N        0.44164    0.42217    0.31284    1.000
    Si2518   Si       0.44184    0.40163    0.27534    1.000
    Si2519   Si       0.42382    0.45868    0.33015    1.000
    Si2520   Si       0.40396    0.45639    0.26275    1.000
    N2521    N        0.46048    0.26683    0.46738    1.000
    N2522    N        0.43884    0.31478    0.37977    1.000
    N2523    N        0.42887    0.32084    0.44703    1.000
    Si2524   Si       0.41966    0.27786    0.45526    1.000
    Si2525   Si       0.40954    0.34962    0.47302    1.000
    Si2526   Si       0.43459    0.50764    0.38599    1.000
    N2527    N        0.41617    0.39304    0.48128    1.000
    N2528    N        0.44706    0.49977    0.42787    1.000
    Si2529   Si       0.42815    0.50424    0.46696    1.000
    N2530    N        0.41750    0.46209    0.47544    1.000
    Si2531   Si       0.44253    0.42635    0.47403    1.000
    N2532    N        0.44340    0.28559    0.54195    1.000
    Si2533   Si       0.40635    0.30154    0.52850    1.000
    N2534    N        0.41081    0.34234    0.51773    1.000
    N2535    N        0.43268    0.37856    0.61284    1.000
    Si2536   Si       0.40092    0.38486    0.52323    1.000
    Si2537   Si       0.40370    0.40280    0.59217    1.000
    N2538    N        0.41913    0.40900    0.55061    1.000
    Si2539   Si       0.40831    0.47804    0.58815    1.000
    N2540    N        0.40567    0.44134    0.61083    1.000
    N2541    N        0.44111    0.50471    0.57589    1.000
    N2542    N        0.44896    0.29150    0.72673    1.000
    N2543    N        0.40852    0.36303    0.73603    1.000
    Si2544   Si       0.43303    0.26701    0.69094    1.000
    Si2545   Si       0.42730    0.37247    0.65650    1.000
    Si2546   Si       0.42208    0.40228    0.71938    1.000
    N2547    N        0.45157    0.47084    0.69665    1.000
    Si2548   Si       0.42217    0.44678    0.64934    1.000
    N2549    N        0.42115    0.41033    0.67567    1.000
    N2550    N        0.40310    0.43837    0.73420    1.000
    Si2551   Si       0.40946    0.47159    0.70737    1.000
    Si2552   Si       0.42202    0.34401    0.77606    1.000
    Si2553   Si       0.42569    0.27585    0.75826    1.000
    N2554    N        0.41068    0.36624    0.81213    1.000
    N2555    N        0.40390    0.30499    0.78251    1.000
    N2556    N        0.39761    0.25667    0.83442    1.000
    Si2557   Si       0.43041    0.38685    0.84637    1.000
    N2558    N        0.44921    0.42494    0.83286    1.000
    Si2559   Si       0.43048    0.46523    0.83549    1.000
    N2560    N        0.39774    0.46595    0.80717    1.000
    N2561    N        0.42254    0.37281    0.94903    1.000
    N2562    N        0.43044    0.36684    0.88853    1.000
    N2563    N        0.43611    0.30283    0.95245    1.000
    Si2564   Si       0.40881    0.37429    0.98992    1.000
    Si2565   Si       0.40165    0.35172    0.91570    1.000
    Si2566   Si       0.40221    0.28147    0.93646    1.000
    N2567    N        0.45301    0.43822    0.91612    1.000
    N2568    N        0.42366    0.48176    0.87460    1.000
    Si2569   Si       0.44493    0.39624    0.91959    1.000
    N2570    N        0.40365    0.49479    0.93796    1.000
    Si2571   Si       0.41778    0.46304    0.91201    1.000
    Si2572   Si       0.40269    0.49271    0.98204    1.000
    N2573    N        0.42833    0.59478    0.08185    1.000
    N2574    N        0.41268    0.51999    0.06350    1.000
    N2575    N        0.45158    0.60758    0.01189    1.000
    Si2576   Si       0.41030    0.55497    0.08951    1.000
    N2577    N        0.44323    0.54464    0.11735    1.000
    Si2578   Si       0.43790    0.61267    0.12120    1.000
    Si2579   Si       0.41171    0.61855    0.99790    1.000
    N2580    N        0.43006    0.69751    0.05996    1.000
    Si2581   Si       0.42685    0.68888    0.01680    1.000
    Si2582   Si       0.41182    0.67924    0.09580    1.000
    Si2583   Si       0.46177    0.72371    0.07906    1.000
    Si2584   Si       0.41717    0.55188    0.15303    1.000
    Si2585   Si       0.44018    0.56448    0.22242    1.000
    N2586    N        0.45253    0.56425    0.18034    1.000
    Si2587   Si       0.40651    0.62888    0.24104    1.000
    N2588    N        0.40411    0.59508    0.14279    1.000
    N2589    N        0.40323    0.59070    0.22065    1.000
    N2590    N        0.41633    0.50888    0.17185    1.000
    N2591    N        0.42896    0.53542    0.25072    1.000
    N2592    N        0.45138    0.71849    0.12116    1.000
    Si2593   Si       0.44759    0.69073    0.22064    1.000
    N2594    N        0.44462    0.64735    0.23307    1.000
    N2595    N        0.43523    0.65399    0.12348    1.000
    N2596    N        0.40813    0.70409    0.23441    1.000
    Si2597   Si       0.41165    0.74109    0.12656    1.000
    Si2598   Si       0.42733    0.52655    0.29221    1.000
    N2599    N        0.40274    0.62229    0.28502    1.000
    N2600    N        0.39885    0.55167    0.31793    1.000
    N2601    N        0.43464    0.69404    0.29940    1.000
    Si2602   Si       0.42304    0.72652    0.27041    1.000
    N2603    N        0.42285    0.65448    0.34810    1.000
    N2604    N        0.43992    0.73271    0.35664    1.000
    Si2605   Si       0.44808    0.69107    0.34641    1.000
    Si2606   Si       0.40759    0.65834    0.30744    1.000
    Si2607   Si       0.46185    0.61325    0.43753    1.000
    N2608    N        0.43724    0.54966    0.37780    1.000
    N2609    N        0.45401    0.60430    0.47938    1.000
    N2610    N        0.45185    0.52960    0.49266    1.000
    N2611    N        0.43212    0.62836    0.41235    1.000
    Si2612   Si       0.43226    0.57022    0.49730    1.000
    Si2613   Si       0.45139    0.63680    0.37578    1.000
    N2614    N        0.43372    0.69433    0.43798    1.000
    Si2615   Si       0.40740    0.66389    0.42407    1.000
    Si2616   Si       0.41627    0.73479    0.44088    1.000
    Si2617   Si       0.41024    0.68939    0.48987    1.000
    N2618    N        0.43090    0.56657    0.53923    1.000
    N2619    N        0.42219    0.57446    0.60766    1.000
    Si2620   Si       0.43436    0.53262    0.61246    1.000
    Si2621   Si       0.40566    0.58585    0.56908    1.000
    N2622    N        0.41222    0.62952    0.56968    1.000
    N2623    N        0.45061    0.67601    0.50435    1.000
    Si2624   Si       0.42947    0.70870    0.60555    1.000
    N2625    N        0.43036    0.75097    0.59374    1.000
    Si2626   Si       0.45174    0.64163    0.58503    1.000
    N2627    N        0.44657    0.68208    0.57358    1.000
    Si2628   Si       0.42227    0.60660    0.64051    1.000
    Si2629   Si       0.42702    0.60055    0.71910    1.000
    N2630    N        0.43983    0.59038    0.67811    1.000
    N2631    N        0.45992    0.52688    0.64728    1.000
    N2632    N        0.46068    0.59809    0.74539    1.000
    Si2633   Si       0.41179    0.74220    0.73926    1.000
    N2634    N        0.42733    0.71227    0.71461    1.000
    N2635    N        0.44384    0.70352    0.64617    1.000
    N2636    N        0.40471    0.63830    0.72360    1.000
    N2637    N        0.44923    0.63821    0.62895    1.000
    Si2638   Si       0.41426    0.71793    0.67365    1.000
    Si2639   Si       0.43457    0.67006    0.72716    1.000
    N2640    N        0.42544    0.54130    0.83782    1.000
    Si2641   Si       0.41218    0.53305    0.75417    1.000
    N2642    N        0.45174    0.53874    0.77021    1.000
    N2643    N        0.45496    0.61501    0.81796    1.000
    Si2644   Si       0.46075    0.53150    0.81490    1.000
    Si2645   Si       0.42887    0.63647    0.84703    1.000
    N2646    N        0.42027    0.72454    0.84846    1.000
    N2647    N        0.43344    0.73845    0.77710    1.000
    Si2648   Si       0.40773    0.74642    0.81228    1.000
    N2649    N        0.45255    0.66662    0.76799    1.000
    N2650    N        0.45143    0.66978    0.86278    1.000
    Si2651   Si       0.42958    0.52427    0.87733    1.000
    N2652    N        0.41831    0.61682    0.88667    1.000
    Si2653   Si       0.43567    0.62422    0.92823    1.000
    N2654    N        0.40508    0.62695    0.95659    1.000
    N2655    N        0.42799    0.74610    0.91398    1.000
    N2656    N        0.40901    0.71088    0.98276    1.000
    Si2657   Si       0.41093    0.74497    0.95442    1.000
    N2658    N        0.42474    0.85827    0.01538    1.000
    N2659    N        0.40958    0.77472    0.09720    1.000
    Si2660   Si       0.44747    0.79481    0.09369    1.000
    N2661    N        0.45239    0.83373    0.07677    1.000
    N2662    N        0.43209    0.92393    0.05988    1.000
    Si2663   Si       0.42729    0.91538    0.10258    1.000
    N2664    N        0.43119    0.99697    0.04244    1.000
    Si2665   Si       0.45223    0.96339    0.06146    1.000
    Si2666   Si       0.44786    0.98008    0.00445    1.000
    N2667    N        0.41286    0.95124    0.11950    1.000
    Si2668   Si       0.46303    0.91363    0.02462    1.000
    N2669    N        0.44260    0.81144    0.20073    1.000
    Si2670   Si       0.44738    0.78025    0.17265    1.000
    N2671    N        0.40869    0.85649    0.23937    1.000
    Si2672   Si       0.44255    0.88118    0.23500    1.000
    N2673    N        0.40980    0.75845    0.16448    1.000
    N2674    N        0.45851    0.88031    0.19267    1.000
    N2675    N        0.46013    0.89569    0.11996    1.000
    N2676    N        0.40913    0.97383    0.19309    1.000
    Si2677   Si       0.44621    0.97093    0.13572    1.000
    N2678    N        0.42485    0.92210    0.23680    1.000
    Si2679   Si       0.44253    0.94780    0.20658    1.000
    N2680    N        0.44495    0.83148    0.31279    1.000
    Si2681   Si       0.42800    0.87015    0.32112    1.000
    Si2682   Si       0.41939    0.79459    0.31442    1.000
    N2683    N        0.43213    0.87950    0.36295    1.000
    N2684    N        0.44387    0.76228    0.29403    1.000
    N2685    N        0.44557    0.89796    0.29451    1.000
    Si2686   Si       0.42505    0.93415    0.27967    1.000
    N2687    N        0.43053    0.98026    0.35909    1.000
    N2688    N        0.43916    0.82185    0.47010    1.000
    Si2689   Si       0.42678    0.86271    0.46972    1.000
    N2690    N        0.44656    0.76495    0.43965    1.000
    Si2691   Si       0.42919    0.80387    0.43027    1.000
    N2692    N        0.42554    0.87302    0.42709    1.000
    N2693    N        0.45197    0.81985    0.39605    1.000
    Si2694   Si       0.42512    0.96255    0.46403    1.000
    Si2695   Si       0.42323    0.99646    0.39969    1.000
    N2696    N        0.46347    0.95136    0.44982    1.000
    N2697    N        0.43269    0.77993    0.52773    1.000
    N2698    N        0.43220    0.87309    0.61077    1.000
    Si2699   Si       0.45563    0.76707    0.56189    1.000
    Si2700   Si       0.46089    0.80434    0.50275    1.000
    Si2701   Si       0.44533    0.95906    0.53520    1.000
    N2702    N        0.43962    0.91730    0.53026    1.000
    N2703    N        0.43914    0.97921    0.57332    1.000
    N2704    N        0.43134    0.98346    0.50132    1.000
    Si2705   Si       0.41351    0.84356    0.63369    1.000
    N2706    N        0.41056    0.85979    0.71922    1.000
    N2707    N        0.43987    0.82456    0.66368    1.000
    Si2708   Si       0.42823    0.78987    0.68912    1.000
    Si2709   Si       0.44871    0.87970    0.72533    1.000
    N2710    N        0.41032    0.76121    0.66335    1.000
    Si2711   Si       0.45709    0.95252    0.73419    1.000
    N2712    N        0.41977    0.97539    0.73999    1.000
    N2713    N        0.44025    0.95298    0.64491    1.000
    N2714    N        0.45480    0.91852    0.70865    1.000
    N2715    N        0.43722    0.84637    0.82316    1.000
    N2716    N        0.43944    0.82069    0.76387    1.000
    N2717    N        0.41578    0.78737    0.81981    1.000
    Si2718   Si       0.45140    0.80874    0.80494    1.000
    Si2719   Si       0.41573    0.87479    0.79508    1.000
    N2720    N        0.44158    0.89118    0.76653    1.000
    Si2721   Si       0.42049    0.97614    0.84930    1.000
    Si2722   Si       0.42825    0.99462    0.77875    1.000
    N2723    N        0.41617    0.96627    0.80848    1.000
    N2724    N        0.45088    0.95209    0.86983    1.000
    N2725    N        0.41061    0.78539    0.96992    1.000
    N2726    N        0.44567    0.86657    0.89410    1.000
    Si2727   Si       0.44070    0.86644    0.97563    1.000
    Si2728   Si       0.45211    0.79494    0.97497    1.000
    N2729    N        0.45395    0.83191    0.95355    1.000
    Si2730   Si       0.40560    0.87164    0.91207    1.000
    Si2731   Si       0.41392    0.93211    0.95883    1.000
    N2732    N        0.41803    0.00237    0.97922    1.000
    N2733    N        0.41286    0.88897    0.95198    1.000
    Si2734   Si       0.45121    0.96186    0.91135    1.000
    N2735    N        0.40734    0.96039    0.92429    1.000
    N2736    N        0.43576    0.93880    0.99695    1.000
    N2737    N        0.47507    0.11955    0.10043    1.000
    Si2738   Si       0.47128    0.09132    0.06881    1.000
    N2739    N        0.51325    0.07604    0.06550    1.000
    Si2740   Si       0.46356    0.04233    0.11971    1.000
    N2741    N        0.50348    0.02858    0.11725    1.000
    Si2742   Si       0.48514    0.15943    0.09333    1.000
    N2743    N        0.49860    0.17494    0.05420    1.000
    Si2744   Si       0.47955    0.20436    0.02912    1.000
    N2745    N        0.46719    0.23771    0.05876    1.000
    N2746    N        0.50933    0.22586    0.00602    1.000
    Si2747   Si       0.49964    0.25593    0.08278    1.000
    Si2748   Si       0.49522    0.09660    0.20801    1.000
    N2749    N        0.50485    0.10453    0.16595    1.000
    N2750    N        0.50592    0.05709    0.22113    1.000
    Si2751   Si       0.46965    0.11382    0.14348    1.000
    N2752    N        0.51352    0.12644    0.23374    1.000
    N2753    N        0.45948    0.23532    0.19197    1.000
    N2754    N        0.49567    0.23459    0.12104    1.000
    Si2755   Si       0.47306    0.25089    0.15272    1.000
    Si2756   Si       0.49647    0.22509    0.21428    1.000
    N2757    N        0.50896    0.19570    0.24601    1.000
    N2758    N        0.48308    0.11981    0.34679    1.000
    Si2759   Si       0.49951    0.11247    0.30829    1.000
    N2760    N        0.48568    0.07349    0.29281    1.000
    Si2761   Si       0.49166    0.04263    0.26081    1.000
    N2762    N        0.48315    0.01364    0.32384    1.000
    N2763    N        0.51657    0.06265    0.36283    1.000
    Si2764   Si       0.47752    0.08258    0.36935    1.000
    N2765    N        0.47470    0.14429    0.28761    1.000
    Si2766   Si       0.47465    0.22587    0.36316    1.000
    N2767    N        0.47521    0.18568    0.34857    1.000
    N2768    N        0.50634    0.24922    0.34926    1.000
    Si2769   Si       0.49904    0.15495    0.36734    1.000
    Si2770   Si       0.48828    0.15745    0.24695    1.000
    N2771    N        0.50584    0.06138    0.45981    1.000
    N2772    N        0.46382    0.08586    0.41085    1.000
    Si2773   Si       0.46562    0.05164    0.44061    1.000
    N2774    N        0.51099    0.13195    0.46932    1.000
    N2775    N        0.48509    0.15339    0.41014    1.000
    Si2776   Si       0.47658    0.15352    0.48686    1.000
    Si2777   Si       0.50869    0.22049    0.48806    1.000
    N2778    N        0.48182    0.19403    0.46838    1.000
    N2779    N        0.48191    0.23088    0.40726    1.000
    Si2780   Si       0.47152    0.19360    0.42637    1.000
    Si2781   Si       0.49851    0.05484    0.54479    1.000
    N2782    N        0.49834    0.04970    0.58777    1.000
    N2783    N        0.50026    0.09883    0.53857    1.000
    Si2784   Si       0.48195    0.13188    0.55847    1.000
    N2785    N        0.46964    0.16070    0.52733    1.000
    N2786    N        0.49643    0.24586    0.52070    1.000
    N2787    N        0.51054    0.14965    0.58552    1.000
    N2788    N        0.48198    0.22814    0.61851    1.000
    Si2789   Si       0.48940    0.02894    0.62624    1.000
    N2790    N        0.50307    0.10223    0.69060    1.000
    Si2791   Si       0.48159    0.06660    0.70090    1.000
    N2792    N        0.49560    0.04305    0.73271    1.000
    N2793    N        0.48112    0.04962    0.66100    1.000
    Si2794   Si       0.48000    0.13002    0.66629    1.000
    N2795    N        0.46516    0.16352    0.68979    1.000
    Si2796   Si       0.50817    0.17930    0.68577    1.000
    N2797    N        0.51143    0.22315    0.68082    1.000
    Si2798   Si       0.48024    0.23968    0.65879    1.000
    N2799    N        0.51261    0.15672    0.65014    1.000
    Si2800   Si       0.48430    0.04984    0.77301    1.000
    Si2801   Si       0.49305    0.10228    0.80346    1.000
    N2802    N        0.51646    0.06494    0.80265    1.000
    N2803    N        0.46794    0.01146    0.78357    1.000
    N2804    N        0.47409    0.12641    0.83622    1.000
    N2805    N        0.51563    0.13335    0.78342    1.000
    N2806    N        0.52024    0.03462    0.86458    1.000
    N2807    N        0.47947    0.19241    0.76099    1.000
    Si2808   Si       0.49566    0.21078    0.84522    1.000
    N2809    N        0.51486    0.23466    0.81197    1.000
    Si2810   Si       0.50016    0.13506    0.86845    1.000
    Si2811   Si       0.51386    0.16861    0.75654    1.000
    N2812    N        0.48202    0.08132    0.96882    1.000
    Si2813   Si       0.49851    0.04301    0.97823    1.000
    Si2814   Si       0.50486    0.02371    0.90658    1.000
    Si2815   Si       0.46727    0.09782    0.93000    1.000
    N2816    N        0.47299    0.06213    0.90497    1.000
    N2817    N        0.48711    0.13409    0.90887    1.000
    Si2818   Si       0.48121    0.11762    0.99635    1.000
    N2819    N        0.51352    0.19568    0.94498    1.000
    N2820    N        0.48370    0.25661    0.93922    1.000
    N2821    N        0.48404    0.24223    0.87314    1.000
    Si2822   Si       0.47773    0.16902    0.93518    1.000
    N2823    N        0.46223    0.14569    0.96900    1.000
    Si2824   Si       0.51386    0.23676    0.96513    1.000
    Si2825   Si       0.45887    0.23800    0.90699    1.000
    N2826    N        0.48747    0.36484    0.07361    1.000
    N2827    N        0.48550    0.29685    0.08411    1.000
    Si2828   Si       0.49166    0.32570    0.05318    1.000
    N2829    N        0.46241    0.31027    0.02428    1.000
    N2830    N        0.49375    0.42774    0.04322    1.000
    N2831    N        0.47460    0.49230    0.07062    1.000
    Si2832   Si       0.50621    0.47114    0.04832    1.000
    Si2833   Si       0.47151    0.41524    0.00923    1.000
    N2834    N        0.51156    0.49930    0.01465    1.000
    Si2835   Si       0.51584    0.39677    0.06757    1.000
    Si2836   Si       0.48088    0.29799    0.20459    1.000
    N2837    N        0.49370    0.28989    0.16372    1.000
    Si2838   Si       0.50737    0.36859    0.19107    1.000
    N2839    N        0.50613    0.33202    0.21792    1.000
    N2840    N        0.49521    0.26686    0.23336    1.000
    N2841    N        0.46449    0.37990    0.19363    1.000
    Si2842   Si       0.51664    0.49944    0.14848    1.000
    N2843    N        0.51063    0.50891    0.19141    1.000
    N2844    N        0.48431    0.46902    0.14207    1.000
    N2845    N        0.49246    0.43919    0.22487    1.000
    Si2846   Si       0.49165    0.42714    0.13436    1.000
    N2847    N        0.51472    0.40858    0.16623    1.000
    Si2848   Si       0.48914    0.35178    0.28994    1.000
    Si2849   Si       0.48042    0.27980    0.27386    1.000
    N2850    N        0.47447    0.36371    0.32704    1.000
    N2851    N        0.46265    0.31874    0.27655    1.000
    N2852    N        0.47773    0.38476    0.26512    1.000
    N2853    N        0.50718    0.47450    0.32530    1.000
    Si2854   Si       0.48715    0.45895    0.36203    1.000
    Si2855   Si       0.51130    0.40972    0.25099    1.000
    N2856    N        0.49666    0.30064    0.41552    1.000
    N2857    N        0.47345    0.36679    0.41873    1.000
    Si2858   Si       0.49261    0.26280    0.43407    1.000
    Si2859   Si       0.45990    0.32670    0.41492    1.000
    N2860    N        0.47696    0.41903    0.37287    1.000
    Si2861   Si       0.48242    0.47474    0.43541    1.000
    N2862    N        0.50907    0.48599    0.46750    1.000
    N2863    N        0.50441    0.47738    0.39831    1.000
    N2864    N        0.47007    0.43218    0.44029    1.000
    Si2865   Si       0.48962    0.40555    0.41203    1.000
    N2866    N        0.47699    0.37244    0.55280    1.000
    N2867    N        0.49989    0.30880    0.51660    1.000
    Si2868   Si       0.46735    0.36221    0.59326    1.000
    Si2869   Si       0.50843    0.34731    0.53503    1.000
    Si2870   Si       0.47062    0.27770    0.50771    1.000
    N2871    N        0.50930    0.27812    0.57996    1.000
    N2872    N        0.46531    0.32087    0.60518    1.000
    Si2873   Si       0.46087    0.28327    0.58174    1.000
    N2874    N        0.49742    0.38522    0.61631    1.000
    Si2875   Si       0.50882    0.47021    0.55593    1.000
    N2876    N        0.48321    0.44071    0.57445    1.000
    N2877    N        0.47385    0.42536    0.50814    1.000
    Si2878   Si       0.49037    0.42727    0.61496    1.000
    Si2879   Si       0.46182    0.41415    0.54729    1.000
    N2880    N        0.49475    0.50521    0.53285    1.000
    Si2881   Si       0.47583    0.31886    0.64958    1.000
    Si2882   Si       0.48677    0.37130    0.70386    1.000
    N2883    N        0.50536    0.34300    0.72845    1.000
    N2884    N        0.46797    0.28124    0.66457    1.000
    N2885    N        0.46068    0.35100    0.67479    1.000
    N2886    N        0.46456    0.45547    0.63657    1.000
    N2887    N        0.46562    0.40375    0.72413    1.000
    Si2888   Si       0.47457    0.44720    0.72589    1.000
    Si2889   Si       0.47523    0.48963    0.66496    1.000
    N2890    N        0.51786    0.49888    0.66134    1.000
    Si2891   Si       0.48897    0.33732    0.81561    1.000
    N2892    N        0.47484    0.36899    0.84301    1.000
    N2893    N        0.49506    0.29783    0.82935    1.000
    N2894    N        0.50867    0.28272    0.75926    1.000
    Si2895   Si       0.49411    0.26797    0.79683    1.000
    N2896    N        0.46396    0.33170    0.78004    1.000
    Si2897   Si       0.48008    0.31287    0.74432    1.000
    N2898    N        0.51404    0.42333    0.86724    1.000
    Si2899   Si       0.48914    0.41052    0.83301    1.000
    Si2900   Si       0.49130    0.47044    0.79472    1.000
    N2901    N        0.50849    0.43138    0.80072    1.000
    N2902    N        0.46496    0.48961    0.82407    1.000
    N2903    N        0.46306    0.46509    0.76205    1.000
    Si2904   Si       0.50216    0.28348    0.87034    1.000
    N2905    N        0.47863    0.31163    0.89493    1.000
    Si2906   Si       0.47337    0.35280    0.88300    1.000
    N2907    N        0.50526    0.32698    0.95561    1.000
    Si2908   Si       0.47781    0.29967    0.93629    1.000
    Si2909   Si       0.50504    0.36997    0.95415    1.000
    N2910    N        0.48570    0.37834    0.91592    1.000
    N2911    N        0.49087    0.38250    0.99019    1.000
    Si2912   Si       0.48685    0.45325    0.93852    1.000
    Si2913   Si       0.47941    0.48926    0.98866    1.000
    N2914    N        0.48544    0.49730    0.94627    1.000
    N2915    N        0.48082    0.44521    0.97925    1.000
    N2916    N        0.47990    0.55908    0.05741    1.000
    Si2917   Si       0.47643    0.53115    0.09349    1.000
    Si2918   Si       0.50841    0.54220    0.03193    1.000
    Si2919   Si       0.50248    0.62923    0.10700    1.000
    N2920    N        0.48512    0.63208    0.06501    1.000
    Si2921   Si       0.46038    0.59863    0.05207    1.000
    Si2922   Si       0.49454    0.66600    0.04247    1.000
    N2923    N        0.49771    0.70030    0.07247    1.000
    N2924    N        0.51168    0.74793    0.01637    1.000
    N2925    N        0.46747    0.67809    0.00759    1.000
    N2926    N        0.50820    0.53771    0.12494    1.000
    N2927    N        0.47895    0.60052    0.12865    1.000
    Si2928   Si       0.48673    0.56595    0.15365    1.000
    Si2929   Si       0.47937    0.62561    0.24678    1.000
    N2930    N        0.48398    0.75996    0.18169    1.000
    N2931    N        0.46486    0.69562    0.18203    1.000
    N2932    N        0.51762    0.63685    0.22608    1.000
    Si2933   Si       0.46221    0.68226    0.14152    1.000
    N2934    N        0.50068    0.66746    0.12751    1.000
    Si2935   Si       0.50002    0.72031    0.17369    1.000
    Si2936   Si       0.49603    0.56220    0.27296    1.000
    N2937    N        0.47316    0.53522    0.29977    1.000
    N2938    N        0.47573    0.60835    0.35688    1.000
    Si2939   Si       0.50147    0.62353    0.31998    1.000
    Si2940   Si       0.50264    0.51798    0.32497    1.000
    N2941    N        0.50518    0.53718    0.36372    1.000
    N2942    N        0.51578    0.58749    0.30122    1.000
    N2943    N        0.47320    0.58435    0.24382    1.000
    N2944    N        0.48211    0.64544    0.28825    1.000
    N2945    N        0.48856    0.70114    0.33052    1.000
    Si2946   Si       0.47165    0.74817    0.32912    1.000
    Si2947   Si       0.48204    0.69042    0.28699    1.000
    N2948    N        0.50511    0.75207    0.29579    1.000
    N2949    N        0.46614    0.71706    0.25017    1.000
    Si2950   Si       0.51264    0.68285    0.36213    1.000
    Si2951   Si       0.47845    0.75681    0.26264    1.000
    Si2952   Si       0.47604    0.56904    0.37589    1.000
    N2953    N        0.48424    0.58174    0.41946    1.000
    Si2954   Si       0.49475    0.51802    0.49036    1.000
    N2955    N        0.51835    0.55279    0.47889    1.000
    N2956    N        0.47318    0.67516    0.38468    1.000
    Si2957   Si       0.47600    0.68931    0.42780    1.000
    Si2958   Si       0.47140    0.64281    0.48940    1.000
    N2959    N        0.50109    0.72402    0.43764    1.000
    N2960    N        0.48577    0.64966    0.44740    1.000
    N2961    N        0.48559    0.55393    0.57389    1.000
    Si2962   Si       0.50051    0.58699    0.59814    1.000
    N2963    N        0.49062    0.62308    0.57459    1.000
    N2964    N        0.51142    0.63618    0.50533    1.000
    Si2965   Si       0.46022    0.53110    0.54555    1.000
    N2966    N        0.47906    0.73423    0.54198    1.000
    Si2967   Si       0.47011    0.69408    0.53941    1.000
    N2968    N        0.51367    0.68597    0.54639    1.000
    Si2969   Si       0.51937    0.64257    0.54779    1.000
    Si2970   Si       0.47303    0.56274    0.67135    1.000
    N2971    N        0.49305    0.54677    0.70691    1.000
    N2972    N        0.49575    0.58341    0.64043    1.000
    Si2973   Si       0.48343    0.56133    0.74690    1.000
    N2974    N        0.47071    0.66214    0.70162    1.000
    N2975    N        0.50742    0.68005    0.64494    1.000
    Si2976   Si       0.50504    0.66784    0.73154    1.000
    Si2977   Si       0.46794    0.66784    0.65623    1.000
    Si2978   Si       0.48910    0.59640    0.84027    1.000
    N2979    N        0.49418    0.55311    0.82910    1.000
    Si2980   Si       0.46728    0.62823    0.77798    1.000
    N2981    N        0.51715    0.56934    0.77193    1.000
    Si2982   Si       0.46345    0.71043    0.85385    1.000
    N2983    N        0.51160    0.63754    0.76474    1.000
    N2984    N        0.48875    0.71150    0.81534    1.000
    Si2985   Si       0.46564    0.70776    0.77758    1.000
    N2986    N        0.49985    0.70875    0.74938    1.000
    Si2987   Si       0.51935    0.74742    0.74924    1.000
    N2988    N        0.51711    0.66680    0.87468    1.000
    N2989    N        0.45893    0.59123    0.94414    1.000
    Si2990   Si       0.50191    0.52285    0.91518    1.000
    N2991    N        0.48285    0.60769    0.88210    1.000
    Si2992   Si       0.47933    0.57623    0.91047    1.000
    Si2993   Si       0.48275    0.59767    0.98078    1.000
    N2994    N        0.46568    0.53752    0.89584    1.000
    N2995    N        0.50934    0.56489    0.99459    1.000
    Si2996   Si       0.48261    0.66833    0.96694    1.000
    Si2997   Si       0.48084    0.65034    0.89014    1.000
    N2998    N        0.46498    0.65731    0.92931    1.000
    Si2999   Si       0.51089    0.74018    0.97351    1.000
    N3000    N        0.50748    0.63442    0.97825    1.000
    N3001    N        0.51600    0.69699    0.96798    1.000
    N3002    N        0.48514    0.72838    0.88819    1.000
    Si3003   Si       0.49463    0.78235    0.03907    1.000
    Si3004   Si       0.47589    0.86758    0.09058    1.000
    N3005    N        0.50935    0.84827    0.10978    1.000
    N3006    N        0.46894    0.76575    0.06944    1.000
    N3007    N        0.46903    0.80638    0.01458    1.000
    N3008    N        0.48776    0.88249    0.05130    1.000
    Si3009   Si       0.46098    0.84472    0.03363    1.000
    N3010    N        0.52122    0.00432    0.05595    1.000
    N3011    N        0.48395    0.95372    0.03292    1.000
    Si3012   Si       0.50798    0.98994    0.09336    1.000
    Si3013   Si       0.51339    0.98437    0.01822    1.000
    N3014    N        0.47177    0.96701    0.09925    1.000
    N3015    N        0.50630    0.82356    0.18182    1.000
    Si3016   Si       0.50119    0.81917    0.13954    1.000
    Si3017   Si       0.47345    0.84152    0.20355    1.000
    N3018    N        0.50225    0.78586    0.24087    1.000
    N3019    N        0.46187    0.79871    0.13550    1.000
    Si3020   Si       0.51449    0.78398    0.19935    1.000
    Si3021   Si       0.47608    0.90298    0.16032    1.000
    Si3022   Si       0.50590    0.95150    0.19045    1.000
    N3023    N        0.47931    0.95785    0.22450    1.000
    N3024    N        0.46378    0.94520    0.16778    1.000
    N3025    N        0.51667    0.91638    0.16574    1.000
    Si3026   Si       0.48058    0.84805    0.29239    1.000
    N3027    N        0.49460    0.77673    0.35530    1.000
    N3028    N        0.50454    0.87986    0.31000    1.000
    N3029    N        0.51365    0.81921    0.30073    1.000
    N3030    N        0.47618    0.85332    0.24905    1.000
    N3031    N        0.50110    0.84644    0.37064    1.000
    N3032    N        0.48913    0.93907    0.34390    1.000
    Si3033   Si       0.48339    0.91903    0.30646    1.000
    Si3034   Si       0.49129    0.96731    0.26382    1.000
    Si3035   Si       0.46683    0.97721    0.33545    1.000
    N3036    N        0.51188    0.00468    0.26093    1.000
    N3037    N        0.51586    0.93430    0.28058    1.000
    N3038    N        0.45847    0.96190    0.29115    1.000
    Si3039   Si       0.49090    0.76672    0.44821    1.000
    N3040    N        0.49622    0.78492    0.48735    1.000
    Si3041   Si       0.49161    0.80576    0.38565    1.000
    Si3042   Si       0.46308    0.86306    0.39083    1.000
    N3043    N        0.51344    0.79418    0.42163    1.000
    N3044    N        0.48327    0.90249    0.40552    1.000
    N3045    N        0.51080    0.99553    0.46923    1.000
    Si3046   Si       0.50652    0.93004    0.38253    1.000
    N3047    N        0.46119    0.88816    0.47944    1.000
    N3048    N        0.51275    0.96866    0.40221    1.000
    Si3049   Si       0.48826    0.98227    0.43463    1.000
    Si3050   Si       0.48019    0.91117    0.44858    1.000
    N3051    N        0.48691    0.79263    0.57927    1.000
    Si3052   Si       0.50114    0.82889    0.55983    1.000
    N3053    N        0.50265    0.85920    0.59094    1.000
    N3054    N        0.47401    0.83975    0.52731    1.000
    Si3055   Si       0.51844    0.77686    0.60689    1.000
    Si3056   Si       0.47239    0.88381    0.61209    1.000
    Si3057   Si       0.46763    0.88425    0.52202    1.000
    N3058    N        0.48933    0.96326    0.53826    1.000
    N3059    N        0.47685    0.92390    0.59388    1.000
    Si3060   Si       0.50453    0.92869    0.55967    1.000
    N3061    N        0.50760    0.89969    0.52944    1.000
    N3062    N        0.49198    0.98808    0.60923    1.000
    Si3063   Si       0.45965    0.95925    0.60721    1.000
    Si3064   Si       0.51852    0.98123    0.51015    1.000
    N3065    N        0.46976    0.78509    0.70010    1.000
    Si3066   Si       0.50987    0.77878    0.68347    1.000
    Si3067   Si       0.47835    0.83911    0.67612    1.000
    Si3068   Si       0.47237    0.81018    0.73792    1.000
    N3069    N        0.48113    0.84886    0.72012    1.000
    N3070    N        0.48202    0.87573    0.65463    1.000
    N3071    N        0.51514    0.82087    0.67314    1.000
    N3072    N        0.50459    0.75788    0.64442    1.000
    Si3073   Si       0.50847    0.00495    0.71838    1.000
    N3074    N        0.51189    0.93503    0.66599    1.000
    N3075    N        0.47771    0.97824    0.70584    1.000
    Si3076   Si       0.47020    0.94349    0.67447    1.000
    N3077    N        0.48903    0.79706    0.82479    1.000
    N3078    N        0.49643    0.78317    0.76152    1.000
    Si3079   Si       0.50088    0.80963    0.86299    1.000
    N3080    N        0.50005    0.85262    0.86798    1.000
    Si3081   Si       0.45967    0.86911    0.85391    1.000
    N3082    N        0.51267    0.88755    0.77262    1.000
    Si3083   Si       0.49924    0.97867    0.78538    1.000
    Si3084   Si       0.47672    0.90667    0.78815    1.000
    Si3085   Si       0.48571    0.93735    0.85221    1.000
    N3086    N        0.47489    0.94560    0.77192    1.000
    N3087    N        0.50276    0.96977    0.82762    1.000
    N3088    N        0.47365    0.90206    0.82996    1.000
    N3089    N        0.47660    0.76347    0.95648    1.000
    N3090    N        0.47775    0.80085    0.89760    1.000
    Si3091   Si       0.47572    0.84175    0.91469    1.000
    N3092    N        0.50767    0.86484    0.93484    1.000
    Si3093   Si       0.46764    0.76205    0.91404    1.000
    N3094    N        0.46398    0.93150    0.93805    1.000
    N3095    N        0.48387    0.00475    0.99410    1.000
    N3096    N        0.51584    0.92283    0.87945    1.000
    N3097    N        0.46632    0.00157    0.91281    1.000
    N3098    N        0.47565    0.88904    0.98901    1.000
    Si3099   Si       0.49347    0.90391    0.95136    1.000
    Si3100   Si       0.53605    0.04451    0.04720    1.000
    Si3101   Si       0.55142    0.09200    0.08295    1.000
    N3102    N        0.53601    0.05010    0.00410    1.000
    N3103    N        0.57119    0.05572    0.06916    1.000
    N3104    N        0.52317    0.12440    0.00710    1.000
    N3105    N        0.55154    0.13450    0.07243    1.000
    Si3106   Si       0.53491    0.15417    0.03627    1.000
    N3107    N        0.56116    0.18722    0.02506    1.000
    Si3108   Si       0.54691    0.22920    0.02860    1.000
    N3109    N        0.53931    0.24674    0.06624    1.000
    Si3110   Si       0.55381    0.14546    0.11549    1.000
    Si3111   Si       0.56556    0.25743    0.10038    1.000
    Si3112   Si       0.53757    0.00997    0.14152    1.000
    N3113    N        0.56179    0.10286    0.12460    1.000
    N3114    N        0.56567    0.02843    0.22796    1.000
    N3115    N        0.54912    0.04396    0.16675    1.000
    Si3116   Si       0.54397    0.08601    0.16013    1.000
    Si3117   Si       0.53136    0.02577    0.20285    1.000
    Si3118   Si       0.55730    0.12434    0.22753    1.000
    N3119    N        0.57148    0.10326    0.18993    1.000
    N3120    N        0.51714    0.16818    0.12328    1.000
    Si3121   Si       0.52611    0.20694    0.13752    1.000
    N3122    N        0.56386    0.22340    0.12597    1.000
    N3123    N        0.55695    0.23927    0.23427    1.000
    Si3124   Si       0.56056    0.24015    0.18810    1.000
    N3125    N        0.52408    0.21608    0.18100    1.000
    N3126    N        0.57247    0.16384    0.23644    1.000
    N3127    N        0.54227    0.10997    0.31041    1.000
    N3128    N        0.54849    0.04223    0.29668    1.000
    Si3129   Si       0.56909    0.07962    0.29115    1.000
    Si3130   Si       0.56690    0.12468    0.34269    1.000
    Si3131   Si       0.52301    0.03195    0.33026    1.000
    Si3132   Si       0.55478    0.01333    0.26665    1.000
    N3133    N        0.57527    0.09286    0.25145    1.000
    N3134    N        0.57292    0.20807    0.28987    1.000
    Si3135   Si       0.55217    0.19869    0.25284    1.000
    N3136    N        0.54172    0.14979    0.36957    1.000
    Si3137   Si       0.54987    0.07017    0.39106    1.000
    Si3138   Si       0.53133    0.03389    0.47988    1.000
    N3139    N        0.54567    0.10438    0.42229    1.000
    N3140    N        0.55892    0.03044    0.40599    1.000
    Si3141   Si       0.53325    0.09441    0.46442    1.000
    N3142    N        0.57421    0.02875    0.47286    1.000
    N3143    N        0.54378    0.19585    0.49459    1.000
    Si3144   Si       0.56672    0.20117    0.45765    1.000
    N3145    N        0.54570    0.18232    0.42671    1.000
    N3146    N        0.52599    0.25329    0.46086    1.000
    Si3147   Si       0.56828    0.17465    0.39062    1.000
    Si3148   Si       0.52391    0.14281    0.42930    1.000
    N3149    N        0.55365    0.07113    0.56499    1.000
    Si3150   Si       0.56404    0.03183    0.54914    1.000
    Si3151   Si       0.54496    0.10228    0.53673    1.000
    Si3152   Si       0.53687    0.06432    0.60351    1.000
    N3153    N        0.52714    0.02597    0.52307    1.000
    N3154    N        0.55943    0.08645    0.49809    1.000
    Si3155   Si       0.57169    0.23378    0.55190    1.000
    N3156    N        0.53813    0.21467    0.57115    1.000
    Si3157   Si       0.54612    0.17180    0.57068    1.000
    N3158    N        0.55869    0.14457    0.53994    1.000
    N3159    N        0.57067    0.16148    0.60656    1.000
    Si3160   Si       0.53400    0.13944    0.61995    1.000
    Si3161   Si       0.51856    0.23948    0.60185    1.000
    N3162    N        0.53517    0.09804    0.62834    1.000
    N3163    N        0.56952    0.06742    0.67692    1.000
    Si3164   Si       0.56495    0.02676    0.66718    1.000
    Si3165   Si       0.54236    0.10020    0.67168    1.000
    N3166    N        0.53861    0.02689    0.62824    1.000
    N3167    N        0.57399    0.12829    0.68133    1.000
    N3168    N        0.54592    0.25389    0.63179    1.000
    Si3169   Si       0.55302    0.23736    0.67274    1.000
    Si3170   Si       0.57509    0.16588    0.70131    1.000
    N3171    N        0.53409    0.16640    0.71800    1.000
    Si3172   Si       0.53601    0.06555    0.84132    1.000
    N3173    N        0.53018    0.10683    0.85649    1.000
    Si3174   Si       0.55615    0.14513    0.79659    1.000
    N3175    N        0.54802    0.18451    0.78080    1.000
    Si3176   Si       0.55369    0.22340    0.79584    1.000
    N3177    N        0.57110    0.24769    0.76275    1.000
    Si3178   Si       0.56008    0.19137    0.86575    1.000
    N3179    N        0.51888    0.17688    0.86118    1.000
    Si3180   Si       0.56837    0.12329    0.86946    1.000
    N3181    N        0.52438    0.03519    0.94389    1.000
    Si3182   Si       0.56048    0.11645    0.98327    1.000
    Si3183   Si       0.55944    0.04539    0.96767    1.000
    N3184    N        0.57351    0.08534    0.95667    1.000
    N3185    N        0.57552    0.21360    0.96352    1.000
    N3186    N        0.56392    0.15330    0.96222    1.000
    Si3187   Si       0.55531    0.18687    0.93202    1.000
    N3188    N        0.55682    0.22036    0.90058    1.000
    Si3189   Si       0.56343    0.34774    0.02959    1.000
    N3190    N        0.52755    0.32328    0.02970    1.000
    N3191    N        0.55586    0.29600    0.11660    1.000
    N3192    N        0.57454    0.36810    0.10809    1.000
    N3193    N        0.55373    0.38603    0.04711    1.000
    N3194    N        0.52640    0.41566    0.10608    1.000
    Si3195   Si       0.55562    0.45062    0.10260    1.000
    N3196    N        0.54279    0.47246    0.06823    1.000
    Si3197   Si       0.56737    0.50735    0.05797    1.000
    N3198    N        0.55819    0.28124    0.18164    1.000
    Si3199   Si       0.53336    0.30595    0.15490    1.000
    N3200    N        0.52977    0.34949    0.15732    1.000
    N3201    N        0.56406    0.30877    0.24408    1.000
    Si3202   Si       0.54180    0.34597    0.24276    1.000
    Si3203   Si       0.52003    0.47472    0.22156    1.000
    Si3204   Si       0.54920    0.41622    0.19332    1.000
    N3205    N        0.53731    0.38617    0.22351    1.000
    N3206    N        0.55486    0.48072    0.13418    1.000
    N3207    N        0.55414    0.45752    0.20057    1.000
    Si3208   Si       0.54666    0.38495    0.13820    1.000
    N3209    N        0.53131    0.35067    0.28591    1.000
    Si3210   Si       0.55532    0.34512    0.32378    1.000
    N3211    N        0.53291    0.31573    0.34921    1.000
    Si3212   Si       0.53402    0.27608    0.33157    1.000
    N3213    N        0.52249    0.27937    0.28968    1.000
    Si3214   Si       0.53699    0.27426    0.24832    1.000
    N3215    N        0.55931    0.38309    0.34604    1.000
    N3216    N        0.57627    0.26509    0.33712    1.000
    Si3217   Si       0.57203    0.49716    0.33366    1.000
    N3218    N        0.57239    0.45517    0.31806    1.000
    Si3219   Si       0.53480    0.46129    0.29593    1.000
    N3220    N        0.53432    0.41917    0.28738    1.000
    N3221    N        0.53214    0.48374    0.26146    1.000
    Si3222   Si       0.57029    0.41055    0.31258    1.000
    N3223    N        0.55798    0.27579    0.40377    1.000
    Si3224   Si       0.53544    0.31285    0.39419    1.000
    N3225    N        0.56324    0.34290    0.40553    1.000
    Si3226   Si       0.56349    0.27004    0.44719    1.000
    Si3227   Si       0.56279    0.38411    0.38948    1.000
    N3228    N        0.57670    0.46367    0.43332    1.000
    Si3229   Si       0.55190    0.47471    0.46856    1.000
    Si3230   Si       0.56814    0.41960    0.43824    1.000
    N3231    N        0.54806    0.43091    0.47475    1.000
    N3232    N        0.53263    0.40403    0.41307    1.000
    N3233    N        0.56705    0.49795    0.37681    1.000
    N3234    N        0.56697    0.50599    0.49429    1.000
    N3235    N        0.53386    0.33726    0.56808    1.000
    N3236    N        0.55969    0.26670    0.52673    1.000
    N3237    N        0.52692    0.37582    0.50631    1.000
    Si3238   Si       0.56914    0.36679    0.50031    1.000
    Si3239   Si       0.53112    0.31028    0.60172    1.000
    Si3240   Si       0.52062    0.27658    0.53829    1.000
    N3241    N        0.52699    0.49667    0.58619    1.000
    N3242    N        0.53664    0.44424    0.53449    1.000
    Si3243   Si       0.56821    0.41657    0.61880    1.000
    Si3244   Si       0.51851    0.41808    0.50375    1.000
    N3245    N        0.51786    0.32530    0.63992    1.000
    N3246    N        0.56532    0.37456    0.62934    1.000
    N3247    N        0.55660    0.27079    0.70142    1.000
    Si3248   Si       0.52468    0.36863    0.64386    1.000
    Si3249   Si       0.54837    0.27948    0.74278    1.000
    N3250    N        0.53177    0.43887    0.62393    1.000
    N3251    N        0.51845    0.39096    0.68165    1.000
    N3252    N        0.56124    0.50986    0.72198    1.000
    Si3253   Si       0.53883    0.41675    0.71182    1.000
    N3254    N        0.51746    0.45340    0.72426    1.000
    Si3255   Si       0.53840    0.48183    0.62549    1.000
    Si3256   Si       0.55377    0.36835    0.83344    1.000
    Si3257   Si       0.53636    0.35219    0.75833    1.000
    N3258    N        0.52678    0.35579    0.80121    1.000
    N3259    N        0.56447    0.31815    0.75486    1.000
    Si3260   Si       0.54749    0.41907    0.78561    1.000
    N3261    N        0.56781    0.45556    0.76888    1.000
    N3262    N        0.56840    0.46832    0.85868    1.000
    N3263    N        0.56970    0.40631    0.81998    1.000
    N3264    N        0.54560    0.39510    0.74887    1.000
    N3265    N        0.51748    0.50065    0.77941    1.000
    Si3266   Si       0.54032    0.48189    0.74839    1.000
    N3267    N        0.53788    0.36287    0.87512    1.000
    Si3268   Si       0.53538    0.31516    0.98601    1.000
    N3269    N        0.54538    0.28794    0.88048    1.000
    Si3270   Si       0.56322    0.32894    0.88316    1.000
    N3271    N        0.56919    0.34432    0.98646    1.000
    N3272    N        0.54191    0.27362    0.97301    1.000
    Si3273   Si       0.52536    0.39619    0.90135    1.000
    N3274    N        0.52622    0.50428    0.88464    1.000
    Si3275   Si       0.56123    0.43103    0.94861    1.000
    N3276    N        0.54378    0.38709    0.94122    1.000
    N3277    N        0.52673    0.44392    0.92282    1.000
    N3278    N        0.55117    0.44811    0.98627    1.000
    Si3279   Si       0.54990    0.49083    0.99163    1.000
    Si3280   Si       0.53232    0.45971    0.88329    1.000
    N3281    N        0.54147    0.54262    0.06210    1.000
    N3282    N        0.53969    0.60398    0.10851    1.000
    Si3283   Si       0.54060    0.56126    0.10024    1.000
    N3284    N        0.53565    0.67680    0.02986    1.000
    N3285    N        0.55790    0.66463    0.09866    1.000
    N3286    N        0.55400    0.73025    0.07854    1.000
    Si3287   Si       0.52785    0.69599    0.10706    1.000
    Si3288   Si       0.52840    0.71886    0.04477    1.000
    Si3289   Si       0.57035    0.66319    0.05611    1.000
    Si3290   Si       0.57056    0.63171    0.12576    1.000
    N3291    N        0.52184    0.57884    0.18273    1.000
    Si3292   Si       0.54507    0.61333    0.20166    1.000
    Si3293   Si       0.53553    0.54288    0.20381    1.000
    N3294    N        0.57138    0.52590    0.18521    1.000
    N3295    N        0.53033    0.72614    0.14054    1.000
    Si3296   Si       0.56262    0.73143    0.17255    1.000
    N3297    N        0.53057    0.70449    0.20067    1.000
    N3298    N        0.56680    0.63480    0.16884    1.000
    Si3299   Si       0.53783    0.67653    0.23319    1.000
    Si3300   Si       0.55199    0.56846    0.31813    1.000
    N3301    N        0.54641    0.52569    0.31237    1.000
    N3302    N        0.56351    0.59276    0.35124    1.000
    Si3303   Si       0.55675    0.51935    0.26924    1.000
    Si3304   Si       0.57036    0.63605    0.33695    1.000
    N3305    N        0.52847    0.54571    0.24843    1.000
    N3306    N        0.52986    0.65056    0.33898    1.000
    Si3307   Si       0.54397    0.72767    0.29155    1.000
    N3308    N        0.55259    0.73846    0.33264    1.000
    N3309    N        0.52360    0.69525    0.27165    1.000
    Si3310   Si       0.57514    0.71984    0.36162    1.000
    N3311    N        0.54758    0.54253    0.41976    1.000
    N3312    N        0.54534    0.60790    0.44987    1.000
    Si3313   Si       0.52928    0.51456    0.39156    1.000
    Si3314   Si       0.52238    0.57199    0.43982    1.000
    Si3315   Si       0.52759    0.64313    0.46590    1.000
    N3316    N        0.57015    0.74214    0.44481    1.000
    N3317    N        0.54322    0.69959    0.38668    1.000
    N3318    N        0.55019    0.67666    0.45174    1.000
    Si3319   Si       0.54169    0.71248    0.42906    1.000
    N3320    N        0.54572    0.57871    0.60202    1.000
    N3321    N        0.55144    0.55522    0.53835    1.000
    Si3322   Si       0.56758    0.58562    0.56474    1.000
    N3323    N        0.55678    0.62790    0.56074    1.000
    Si3324   Si       0.52015    0.53144    0.56065    1.000
    Si3325   Si       0.55763    0.54894    0.49570    1.000
    N3326    N        0.54679    0.74903    0.52036    1.000
    N3327    N        0.53176    0.73579    0.59281    1.000
    Si3328   Si       0.52279    0.72832    0.55153    1.000
    Si3329   Si       0.54143    0.58775    0.64306    1.000
    N3330    N        0.55710    0.55933    0.67435    1.000
    N3331    N        0.55623    0.62779    0.65110    1.000
    Si3332   Si       0.53301    0.52624    0.69244    1.000
    Si3333   Si       0.58233    0.65215    0.71569    1.000
    N3334    N        0.56286    0.70781    0.64431    1.000
    N3335    N        0.54256    0.66636    0.70782    1.000
    N3336    N        0.53630    0.75876    0.71181    1.000
    Si3337   Si       0.52154    0.71912    0.63514    1.000
    Si3338   Si       0.54784    0.66992    0.66287    1.000
    Si3339   Si       0.53637    0.60645    0.78368    1.000
    N3340    N        0.56150    0.53241    0.82615    1.000
    N3341    N        0.52424    0.61535    0.82594    1.000
    Si3342   Si       0.52525    0.53780    0.80204    1.000
    Si3343   Si       0.56379    0.51097    0.86503    1.000
    N3344    N        0.57833    0.59430    0.78903    1.000
    Si3345   Si       0.53149    0.71432    0.81669    1.000
    Si3346   Si       0.54248    0.64864    0.84556    1.000
    N3347    N        0.55651    0.67830    0.81482    1.000
    N3348    N        0.54583    0.72564    0.85597    1.000
    N3349    N        0.54147    0.74766    0.79010    1.000
    N3350    N        0.55299    0.51686    0.95826    1.000
    Si3351   Si       0.53911    0.55814    0.96361    1.000
    N3352    N        0.57287    0.58259    0.97037    1.000
    N3353    N        0.51737    0.56211    0.92679    1.000
    Si3354   Si       0.57953    0.73746    0.93595    1.000
    N3355    N        0.54917    0.75850    0.95971    1.000
    Si3356   Si       0.52387    0.70896    0.89029    1.000
    N3357    N        0.56041    0.70485    0.91491    1.000
    Si3358   Si       0.53791    0.66475    0.98887    1.000
    N3359    N        0.57660    0.64972    0.98105    1.000
    N3360    N        0.56121    0.85484    0.06236    1.000
    Si3361   Si       0.54822    0.82557    0.09841    1.000
    Si3362   Si       0.56796    0.80244    0.04534    1.000
    N3363    N        0.56288    0.82097    0.00505    1.000
    Si3364   Si       0.56962    0.86423    0.01058    1.000
    N3365    N        0.52633    0.80068    0.05938    1.000
    Si3366   Si       0.55798    0.76303    0.10919    1.000
    Si3367   Si       0.57291    0.95793    0.08335    1.000
    Si3368   Si       0.53153    0.89167    0.05806    1.000
    N3369    N        0.54620    0.90401    0.02013    1.000
    N3370    N        0.55914    0.91428    0.08455    1.000
    N3371    N        0.54511    0.97829    0.11197    1.000
    N3372    N        0.53524    0.79435    0.12730    1.000
    N3373    N        0.56652    0.87457    0.19657    1.000
    N3374    N        0.56092    0.82290    0.23772    1.000
    N3375    N        0.55418    0.76776    0.19829    1.000
    N3376    N        0.57382    0.85886    0.12613    1.000
    Si3377   Si       0.57308    0.86321    0.23619    1.000
    Si3378   Si       0.55751    0.91557    0.18458    1.000
    N3379    N        0.51796    0.99255    0.17826    1.000
    N3380    N        0.54307    0.94321    0.21541    1.000
    N3381    N        0.55171    0.80676    0.35022    1.000
    N3382    N        0.56232    0.86880    0.33237    1.000
    Si3383   Si       0.53318    0.80276    0.26581    1.000
    Si3384   Si       0.52915    0.84271    0.33639    1.000
    N3385    N        0.55964    0.77567    0.28377    1.000
    Si3386   Si       0.53079    0.77807    0.32317    1.000
    Si3387   Si       0.54301    0.89920    0.30413    1.000
    N3388    N        0.54720    0.99886    0.34796    1.000
    N3389    N        0.56616    0.89600    0.26615    1.000
    Si3390   Si       0.55313    0.94065    0.25742    1.000
    N3391    N        0.56428    0.93157    0.32763    1.000
    N3392    N        0.57191    0.97666    0.27768    1.000
    Si3393   Si       0.57192    0.97306    0.32369    1.000
    N3394    N        0.56570    0.80246    0.47527    1.000
    Si3395   Si       0.55036    0.81163    0.43622    1.000
    N3396    N        0.55025    0.85603    0.43180    1.000
    Si3397   Si       0.54808    0.89867    0.42984    1.000
    Si3398   Si       0.54780    0.99150    0.39163    1.000
    N3399    N        0.52169    0.91558    0.46061    1.000
    N3400    N        0.54751    0.91270    0.38948    1.000
    N3401    N        0.57887    0.97508    0.41890    1.000
    N3402    N        0.53856    0.82168    0.53699    1.000
    Si3403   Si       0.54336    0.85457    0.60404    1.000
    Si3404   Si       0.53525    0.79039    0.50607    1.000
    N3405    N        0.54481    0.81102    0.61093    1.000
    Si3406   Si       0.57252    0.85104    0.53537    1.000
    N3407    N        0.57596    0.86296    0.57566    1.000
    N3408    N        0.57188    0.88682    0.50782    1.000
    Si3409   Si       0.56927    0.95973    0.55127    1.000
    Si3410   Si       0.53843    0.98637    0.60991    1.000
    N3411    N        0.56424    0.99680    0.57379    1.000
    N3412    N        0.54173    0.93874    0.57993    1.000
    N3413    N        0.54968    0.95293    0.51481    1.000
    Si3414   Si       0.56285    0.92221    0.61316    1.000
    Si3415   Si       0.53656    0.91385    0.50223    1.000
    N3416    N        0.54547    0.82422    0.73071    1.000
    Si3417   Si       0.55624    0.83676    0.68926    1.000
    N3418    N        0.53706    0.87986    0.70024    1.000
    N3419    N        0.57685    0.80046    0.67496    1.000
    Si3420   Si       0.52039    0.86082    0.73759    1.000
    N3421    N        0.56658    0.93811    0.70844    1.000
    N3422    N        0.56558    0.96085    0.63668    1.000
    N3423    N        0.54723    0.88683    0.63261    1.000
    Si3424   Si       0.56142    0.96139    0.74502    1.000
    N3425    N        0.54028    0.99890    0.68981    1.000
    Si3426   Si       0.54770    0.95693    0.67513    1.000
    Si3427   Si       0.51904    0.89427    0.66480    1.000
    N3428    N        0.55527    0.81401    0.79575    1.000
    Si3429   Si       0.56970    0.80801    0.83409    1.000
    N3430    N        0.57116    0.87273    0.75782    1.000
    Si3431   Si       0.57847    0.82561    0.75907    1.000
    N3432    N        0.54270    0.80029    0.86627    1.000
    Si3433   Si       0.52052    0.78809    0.79629    1.000
    N3434    N        0.55464    0.88417    0.83219    1.000
    Si3435   Si       0.53154    0.88233    0.87023    1.000
    Si3436   Si       0.52760    0.99321    0.85411    1.000
    N3437    N        0.56147    0.94093    0.78472    1.000
    Si3438   Si       0.55273    0.89664    0.78965    1.000
    N3439    N        0.52967    0.98938    0.75442    1.000
    N3440    N        0.56775    0.98107    0.84680    1.000
    Si3441   Si       0.55206    0.86319    0.93677    1.000
    N3442    N        0.57621    0.82745    0.93054    1.000
    Si3443   Si       0.57468    0.77918    0.98795    1.000
    N3444    N        0.57626    0.88113    0.97011    1.000
    N3445    N        0.56354    0.88390    0.90123    1.000
    N3446    N        0.53127    0.92631    0.94927    1.000
    Si3447   Si       0.55769    0.92590    0.98360    1.000
    N3448    N        0.53073    0.98460    0.89915    1.000
    Si3449   Si       0.53971    0.94338    0.90891    1.000
    N3450    N        0.54735    0.96911    0.99718    1.000
    Si3451   Si       0.61284    0.05033    0.08128    1.000
    Si3452   Si       0.62615    0.11815    0.04210    1.000
    N3453    N        0.59217    0.12563    0.01368    1.000
    N3454    N        0.63402    0.01399    0.06971    1.000
    N3455    N        0.63057    0.08606    0.07183    1.000
    N3456    N        0.58521    0.24877    0.01641    1.000
    Si3457   Si       0.61692    0.25385    0.04785    1.000
    N3458    N        0.63369    0.14675    0.07328    1.000
    N3459    N        0.62234    0.04079    0.12332    1.000
    N3460    N        0.62350    0.05762    0.19798    1.000
    Si3461   Si       0.58479    0.06571    0.21391    1.000
    Si3462   Si       0.60018    0.12517    0.16508    1.000
    N3463    N        0.63695    0.10533    0.14653    1.000
    Si3464   Si       0.61665    0.16278    0.23768    1.000
    N3465    N        0.62338    0.14674    0.19666    1.000
    N3466    N        0.58416    0.15989    0.14240    1.000
    Si3467   Si       0.63087    0.23130    0.20685    1.000
    N3468    N        0.62638    0.20466    0.24336    1.000
    Si3469   Si       0.59835    0.20080    0.14231    1.000
    N3470    N        0.59816    0.21933    0.18162    1.000
    N3471    N        0.60820    0.07485    0.31075    1.000
    Si3472   Si       0.62480    0.08855    0.34845    1.000
    N3473    N        0.62620    0.02108    0.26839    1.000
    N3474    N        0.59452    0.15346    0.32806    1.000
    Si3475   Si       0.58802    0.19647    0.32733    1.000
    Si3476   Si       0.61114    0.22528    0.27722    1.000
    N3477    N        0.62974    0.20343    0.31329    1.000
    N3478    N        0.57733    0.20839    0.36662    1.000
    N3479    N        0.58424    0.09412    0.37202    1.000
    N3480    N        0.61001    0.08825    0.43753    1.000
    Si3481   Si       0.58804    0.11361    0.41071    1.000
    N3482    N        0.62921    0.02045    0.42838    1.000
    Si3483   Si       0.58755    0.01354    0.43445    1.000
    Si3484   Si       0.59679    0.05739    0.49510    1.000
    N3485    N        0.59677    0.17398    0.47215    1.000
    N3486    N        0.58979    0.23762    0.45139    1.000
    Si3487   Si       0.58194    0.25042    0.37841    1.000
    Si3488   Si       0.63051    0.24080    0.43469    1.000
    N3489    N        0.62206    0.25118    0.39306    1.000
    N3490    N        0.60507    0.15366    0.40216    1.000
    N3491    N        0.60196    0.03733    0.53503    1.000
    N3492    N        0.63545    0.07605    0.50054    1.000
    N3493    N        0.59670    0.20124    0.53854    1.000
    Si3494   Si       0.61371    0.15540    0.61322    1.000
    N3495    N        0.59753    0.24862    0.58486    1.000
    Si3496   Si       0.57618    0.17146    0.51085    1.000
    N3497    N        0.63772    0.15098    0.51920    1.000
    N3498    N        0.61563    0.11410    0.63061    1.000
    Si3499   Si       0.60440    0.09824    0.67140    1.000
    N3500    N        0.63218    0.06912    0.68723    1.000
    N3501    N        0.60365    0.00932    0.66136    1.000
    Si3502   Si       0.63613    0.06797    0.73096    1.000
    N3503    N        0.57939    0.20262    0.67792    1.000
    Si3504   Si       0.61848    0.21671    0.66220    1.000
    N3505    N        0.61178    0.16603    0.72555    1.000
    N3506    N        0.63116    0.18942    0.63266    1.000
    Si3507   Si       0.59501    0.08100    0.79335    1.000
    N3508    N        0.60210    0.05830    0.75877    1.000
    N3509    N        0.58483    0.12016    0.77339    1.000
    Si3510   Si       0.61097    0.01604    0.75860    1.000
    N3511    N        0.63015    0.10011    0.81091    1.000
    Si3512   Si       0.60625    0.05529    0.86400    1.000
    N3513    N        0.57817    0.06448    0.83137    1.000
    Si3514   Si       0.61542    0.25786    0.76142    1.000
    Si3515   Si       0.62235    0.13759    0.75734    1.000
    Si3516   Si       0.62192    0.14083    0.82472    1.000
    Si3517   Si       0.60969    0.24485    0.83215    1.000
    N3518    N        0.57941    0.14578    0.83223    1.000
    N3519    N        0.57537    0.21826    0.83458    1.000
    N3520    N        0.63890    0.16118    0.79082    1.000
    Si3521   Si       0.61994    0.01943    0.93492    1.000
    N3522    N        0.59215    0.09251    0.88807    1.000
    N3523    N        0.60029    0.02439    0.89479    1.000
    Si3524   Si       0.60819    0.09316    0.93030    1.000
    N3525    N        0.58890    0.01542    0.97002    1.000
    N3526    N        0.62740    0.13124    0.93695    1.000
    N3527    N        0.62866    0.17839    0.99150    1.000
    Si3528   Si       0.58668    0.18065    0.99060    1.000
    Si3529   Si       0.57930    0.25396    0.97227    1.000
    Si3530   Si       0.62197    0.15854    0.90120    1.000
    N3531    N        0.57741    0.16149    0.89566    1.000
    N3532    N        0.58661    0.32346    0.05924    1.000
    N3533    N        0.63032    0.32476    0.10549    1.000
    Si3534   Si       0.58400    0.32692    0.10390    1.000
    N3535    N        0.60651    0.26125    0.08734    1.000
    Si3536   Si       0.63245    0.32700    0.06025    1.000
    N3537    N        0.62338    0.37348    0.05399    1.000
    Si3538   Si       0.58930    0.39282    0.07404    1.000
    Si3539   Si       0.62409    0.48802    0.01578    1.000
    Si3540   Si       0.62346    0.46200    0.08077    1.000
    N3541    N        0.59307    0.43314    0.08926    1.000
    N3542    N        0.58272    0.49829    0.01771    1.000
    N3543    N        0.60742    0.50170    0.07802    1.000
    N3544    N        0.63540    0.45124    0.04026    1.000
    N3545    N        0.62713    0.27489    0.21300    1.000
    N3546    N        0.62243    0.33657    0.24604    1.000
    Si3547   Si       0.60605    0.29775    0.24435    1.000
    N3548    N        0.63294    0.26891    0.14684    1.000
    Si3549   Si       0.57737    0.48233    0.17516    1.000
    N3550    N        0.61631    0.46094    0.16899    1.000
    Si3551   Si       0.61886    0.41584    0.16766    1.000
    N3552    N        0.57770    0.40369    0.16404    1.000
    N3553    N        0.59302    0.32781    0.31016    1.000
    Si3554   Si       0.60708    0.28823    0.31529    1.000
    Si3555   Si       0.61703    0.35495    0.28621    1.000
    N3556    N        0.61205    0.26801    0.27769    1.000
    N3557    N        0.60409    0.39696    0.28923    1.000
    N3558    N        0.58514    0.37537    0.45999    1.000
    Si3559   Si       0.59147    0.33790    0.43908    1.000
    N3560    N        0.58816    0.30284    0.46494    1.000
    N3561    N        0.63321    0.34784    0.42309    1.000
    Si3562   Si       0.63008    0.41818    0.38106    1.000
    Si3563   Si       0.59805    0.48315    0.40133    1.000
    Si3564   Si       0.62793    0.39011    0.43709    1.000
    N3565    N        0.59706    0.40559    0.40572    1.000
    N3566    N        0.62576    0.46087    0.37424    1.000
    N3567    N        0.61743    0.35321    0.57310    1.000
    Si3568   Si       0.59286    0.29205    0.51004    1.000
    N3569    N        0.62848    0.27564    0.52945    1.000
    N3570    N        0.58098    0.33126    0.52276    1.000
    Si3571   Si       0.58029    0.33245    0.56536    1.000
    Si3572   Si       0.58511    0.27021    0.62143    1.000
    N3573    N        0.57732    0.31017    0.60538    1.000
    Si3574   Si       0.63027    0.38134    0.54324    1.000
    Si3575   Si       0.62410    0.43444    0.59501    1.000
    Si3576   Si       0.59566    0.50141    0.52879    1.000
    N3577    N        0.59458    0.39482    0.52403    1.000
    N3578    N        0.60742    0.46037    0.51993    1.000
    N3579    N        0.58345    0.43177    0.58058    1.000
    Si3580   Si       0.61171    0.49703    0.61278    1.000
    Si3581   Si       0.57839    0.43271    0.53784    1.000
    N3582    N        0.62209    0.28859    0.72970    1.000
    N3583    N        0.59900    0.32304    0.66924    1.000
    N3584    N        0.60603    0.36017    0.72123    1.000
    Si3585   Si       0.59749    0.28489    0.69107    1.000
    Si3586   Si       0.59491    0.34171    0.63011    1.000
    Si3587   Si       0.63148    0.34824    0.68562    1.000
    N3588    N        0.60542    0.25770    0.65726    1.000
    N3589    N        0.57895    0.42683    0.69656    1.000
    N3590    N        0.58119    0.48219    0.63645    1.000
    Si3591   Si       0.59957    0.45389    0.66643    1.000
    Si3592   Si       0.60578    0.50960    0.72092    1.000
    Si3593   Si       0.60933    0.40254    0.71659    1.000
    N3594    N        0.60963    0.42334    0.63611    1.000
    N3595    N        0.62111    0.48301    0.69035    1.000
    N3596    N        0.61412    0.27612    0.80176    1.000
    Si3597   Si       0.61349    0.31633    0.81738    1.000
    N3598    N        0.62171    0.34548    0.78415    1.000
    N3599    N        0.58072    0.33390    0.84223    1.000
    Si3600   Si       0.60628    0.32595    0.74684    1.000
    N3601    N        0.61165    0.26775    0.86808    1.000
    Si3602   Si       0.61081    0.45728    0.77543    1.000
    N3603    N        0.62078    0.45103    0.81583    1.000
    Si3604   Si       0.59248    0.43468    0.84281    1.000
    N3605    N        0.62360    0.49580    0.75862    1.000
    N3606    N        0.62319    0.41844    0.75540    1.000
    Si3607   Si       0.57586    0.25968    0.89686    1.000
    N3608    N        0.59003    0.33658    0.92063    1.000
    Si3609   Si       0.61779    0.30809    0.93666    1.000
    N3610    N        0.59634    0.27093    0.93491    1.000
    Si3611   Si       0.58097    0.36722    0.95058    1.000
    N3612    N        0.61164    0.41351    0.87554    1.000
    N3613    N        0.59264    0.46499    0.93606    1.000
    N3614    N        0.60068    0.40675    0.95523    1.000
    Si3615   Si       0.62518    0.44213    0.95092    1.000
    Si3616   Si       0.58915    0.50803    0.93573    1.000
    Si3617   Si       0.61509    0.53794    0.09882    1.000
    Si3618   Si       0.61560    0.61010    0.07150    1.000
    N3619    N        0.61022    0.61904    0.11515    1.000
    N3620    N        0.58360    0.62186    0.04353    1.000
    N3621    N        0.62843    0.56826    0.06989    1.000
    N3622    N        0.62463    0.58527    0.00156    1.000
    Si3623   Si       0.58604    0.61061    0.00056    1.000
    N3624    N        0.57890    0.55216    0.11773    1.000
    Si3625   Si       0.59317    0.73433    0.05737    1.000
    N3626    N        0.60164    0.69179    0.04718    1.000
    N3627    N        0.63111    0.74929    0.07220    1.000
    N3628    N        0.62883    0.52506    0.14146    1.000
    Si3629   Si       0.62173    0.58285    0.21643    1.000
    N3630    N        0.62212    0.57815    0.17293    1.000
    Si3631   Si       0.59444    0.55036    0.15695    1.000
    Si3632   Si       0.63296    0.61479    0.15169    1.000
    N3633    N        0.57771    0.59426    0.22439    1.000
    N3634    N        0.57993    0.66311    0.23340    1.000
    N3635    N        0.59603    0.70234    0.17719    1.000
    N3636    N        0.58852    0.75510    0.13947    1.000
    N3637    N        0.63249    0.64697    0.18192    1.000
    Si3638   Si       0.59336    0.66191    0.19329    1.000
    Si3639   Si       0.61956    0.55055    0.31613    1.000
    Si3640   Si       0.58978    0.60445    0.26711    1.000
    N3641    N        0.58807    0.57092    0.29407    1.000
    N3642    N        0.59684    0.51348    0.25717    1.000
    N3643    N        0.63075    0.57187    0.35134    1.000
    N3644    N        0.61389    0.50935    0.32810    1.000
    N3645    N        0.63175    0.60148    0.25361    1.000
    N3646    N        0.58359    0.63832    0.29515    1.000
    Si3647   Si       0.59676    0.67461    0.27225    1.000
    N3648    N        0.60884    0.69706    0.34740    1.000
    N3649    N        0.58374    0.71516    0.27784    1.000
    N3650    N        0.63247    0.74808    0.30600    1.000
    Si3651   Si       0.59998    0.75640    0.27674    1.000
    Si3652   Si       0.59946    0.59238    0.37403    1.000
    N3653    N        0.61671    0.51719    0.41972    1.000
    N3654    N        0.60038    0.58576    0.41423    1.000
    N3655    N        0.59077    0.56594    0.47219    1.000
    Si3656   Si       0.58920    0.54717    0.43090    1.000
    Si3657   Si       0.58970    0.60554    0.45147    1.000
    Si3658   Si       0.63162    0.56092    0.49090    1.000
    N3659    N        0.60099    0.63732    0.36831    1.000
    N3660    N        0.60907    0.69494    0.41790    1.000
    N3661    N        0.59553    0.75194    0.38041    1.000
    N3662    N        0.60835    0.64101    0.46565    1.000
    Si3663   Si       0.62095    0.67347    0.38156    1.000
    Si3664   Si       0.59354    0.68005    0.45595    1.000
    Si3665   Si       0.57809    0.74166    0.48867    1.000
    Si3666   Si       0.60581    0.73960    0.41976    1.000
    N3667    N        0.59768    0.70241    0.49526    1.000
    N3668    N        0.60991    0.58046    0.56670    1.000
    N3669    N        0.62567    0.53285    0.52314    1.000
    Si3670   Si       0.62929    0.54221    0.56810    1.000
    N3671    N        0.60126    0.50757    0.57337    1.000
    Si3672   Si       0.63530    0.61419    0.55287    1.000
    Si3673   Si       0.58345    0.72212    0.60890    1.000
    N3674    N        0.58585    0.69565    0.57353    1.000
    N3675    N        0.61169    0.63910    0.60713    1.000
    Si3676   Si       0.60937    0.69524    0.53717    1.000
    N3677    N        0.61688    0.65247    0.54142    1.000
    Si3678   Si       0.58812    0.65224    0.57473    1.000
    N3679    N        0.62315    0.71085    0.62526    1.000
    N3680    N        0.63212    0.53360    0.61966    1.000
    N3681    N        0.58592    0.60903    0.72142    1.000
    N3682    N        0.61953    0.55025    0.71135    1.000
    Si3683   Si       0.59172    0.57968    0.69003    1.000
    N3684    N        0.61750    0.59633    0.66037    1.000
    Si3685   Si       0.59972    0.63120    0.64574    1.000
    N3686    N        0.59912    0.66312    0.67610    1.000
    N3687    N        0.60787    0.73811    0.69449    1.000
    Si3688   Si       0.61346    0.70462    0.66686    1.000
    N3689    N        0.60616    0.58298    0.85192    1.000
    Si3690   Si       0.59167    0.56356    0.81635    1.000
    Si3691   Si       0.60449    0.61570    0.76000    1.000
    N3692    N        0.62814    0.54753    0.80305    1.000
    Si3693   Si       0.61591    0.62595    0.84823    1.000
    N3694    N        0.59494    0.65838    0.75674    1.000
    N3695    N        0.62489    0.65606    0.81815    1.000
    N3696    N        0.60774    0.71955    0.78475    1.000
    Si3697   Si       0.59491    0.67933    0.79425    1.000
    Si3698   Si       0.58425    0.74512    0.86273    1.000
    N3699    N        0.60768    0.70787    0.86753    1.000
    Si3700   Si       0.58512    0.75625    0.78750    1.000
    N3701    N        0.58164    0.64400    0.86725    1.000
    N3702    N        0.62189    0.58695    0.91983    1.000
    N3703    N        0.62280    0.53103    0.95665    1.000
    Si3704   Si       0.62033    0.55973    0.88610    1.000
    Si3705   Si       0.61455    0.57227    0.95882    1.000
    N3706    N        0.59283    0.52633    0.89554    1.000
    Si3707   Si       0.60878    0.67054    0.96212    1.000
    N3708    N        0.61534    0.65842    0.92213    1.000
    Si3709   Si       0.58847    0.67768    0.89301    1.000
    N3710    N        0.60745    0.71506    0.96203    1.000
    Si3711   Si       0.62621    0.79132    0.08189    1.000
    N3712    N        0.62810    0.87256    0.08828    1.000
    N3713    N        0.61069    0.87873    0.02082    1.000
    N3714    N        0.58104    0.79674    0.08725    1.000
    Si3715   Si       0.58494    0.87974    0.09080    1.000
    N3716    N        0.63130    0.81352    0.04487    1.000
    N3717    N        0.57760    0.76089    0.02832    1.000
    N3718    N        0.61257    0.96551    0.10325    1.000
    N3719    N        0.58958    0.96868    0.04408    1.000
    Si3720   Si       0.63153    0.97467    0.05310    1.000
    Si3721   Si       0.58957    0.98177    0.00117    1.000
    N3722    N        0.61586    0.87296    0.23800    1.000
    N3723    N        0.61335    0.77442    0.23985    1.000
    Si3724   Si       0.58523    0.79494    0.21427    1.000
    Si3725   Si       0.58823    0.85367    0.16516    1.000
    N3726    N        0.59978    0.81242    0.17645    1.000
    Si3727   Si       0.61932    0.78472    0.15130    1.000
    N3728    N        0.63188    0.87061    0.16565    1.000
    N3729    N        0.59258    0.93118    0.16581    1.000
    Si3730   Si       0.62411    0.94675    0.14224    1.000
    Si3731   Si       0.60123    0.84968    0.33477    1.000
    N3732    N        0.61636    0.80905    0.34084    1.000
    N3733    N        0.62335    0.87754    0.30929    1.000
    Si3734   Si       0.58775    0.79128    0.36803    1.000
    Si3735   Si       0.61025    0.89710    0.27486    1.000
    N3736    N        0.61455    0.98308    0.32647    1.000
    N3737    N        0.62233    0.93777    0.27131    1.000
    Si3738   Si       0.61711    0.98023    0.28241    1.000
    Si3739   Si       0.57965    0.90651    0.36022    1.000
    N3740    N        0.60753    0.86554    0.37753    1.000
    N3741    N        0.61422    0.85243    0.45609    1.000
    Si3742   Si       0.59406    0.85100    0.41473    1.000
    N3743    N        0.58391    0.80809    0.40787    1.000
    Si3744   Si       0.60709    0.80970    0.48719    1.000
    N3745    N        0.58731    0.91106    0.44386    1.000
    N3746    N        0.61337    0.93175    0.37379    1.000
    Si3747   Si       0.60324    0.88955    0.47852    1.000
    Si3748   Si       0.60314    0.94000    0.41593    1.000
    N3749    N        0.60944    0.83264    0.52353    1.000
    Si3750   Si       0.61197    0.87532    0.60082    1.000
    N3751    N        0.59028    0.76469    0.61098    1.000
    N3752    N        0.61207    0.76621    0.50189    1.000
    N3753    N        0.60950    0.83130    0.62012    1.000
    N3754    N        0.61223    0.95413    0.54377    1.000
    N3755    N        0.60345    0.91741    0.60122    1.000
    Si3756   Si       0.63183    0.94401    0.58263    1.000
    N3757    N        0.63702    0.97748    0.60842    1.000
    N3758    N        0.59532    0.86483    0.69067    1.000
    Si3759   Si       0.58093    0.80073    0.63142    1.000
    Si3760   Si       0.57841    0.76983    0.70874    1.000
    N3761    N        0.60022    0.98073    0.73679    1.000
    Si3762   Si       0.62085    0.94911    0.71355    1.000
    Si3763   Si       0.60857    0.97100    0.64173    1.000
    N3764    N        0.62558    0.94289    0.66986    1.000
    N3765    N        0.61706    0.90947    0.73324    1.000
    Si3766   Si       0.57640    0.89486    0.71716    1.000
    N3767    N        0.59192    0.77203    0.82940    1.000
    N3768    N        0.59620    0.83069    0.86070    1.000
    Si3769   Si       0.59424    0.86807    0.83933    1.000
    N3770    N        0.62255    0.83483    0.75885    1.000
    Si3771   Si       0.62733    0.87902    0.76449    1.000
    N3772    N        0.59366    0.78080    0.74937    1.000
    Si3773   Si       0.63554    0.79466    0.75508    1.000
    N3774    N        0.61830    0.88268    0.80554    1.000
    N3775    N        0.60804    0.00322    0.79916    1.000
    Si3776   Si       0.58661    0.96600    0.81015    1.000
    N3777    N        0.62672    0.94743    0.81719    1.000
    N3778    N        0.62037    0.89042    0.86770    1.000
    Si3779   Si       0.61468    0.82115    0.94707    1.000
    N3780    N        0.61284    0.78702    0.97262    1.000
    N3781    N        0.58481    0.76507    0.90234    1.000
    Si3782   Si       0.57745    0.80742    0.89180    1.000
    N3783    N        0.63929    0.81957    0.91056    1.000
    N3784    N        0.60133    0.94031    0.98116    1.000
    Si3785   Si       0.62057    0.89668    0.98105    1.000
    N3786    N        0.58275    0.94758    0.90252    1.000
    Si3787   Si       0.60138    0.90898    0.90224    1.000
    N3788    N        0.63242    0.90112    0.93474    1.000
    Si3789   Si       0.57686    0.98945    0.88836    1.000
    N3790    N        0.65537    0.11420    0.00849    1.000
    Si3791   Si       0.64709    0.11383    0.10190    1.000
    Si3792   Si       0.68785    0.08618    0.01016    1.000
    N3793    N        0.69003    0.11218    0.10469    1.000
    Si3794   Si       0.67716    0.00800    0.00106    1.000
    Si3795   Si       0.65869    0.20357    0.01090    1.000
    Si3796   Si       0.65079    0.18709    0.08135    1.000
    N3797    N        0.64286    0.21765    0.05005    1.000
    N3798    N        0.63573    0.20091    0.11962    1.000
    N3799    N        0.67764    0.04225    0.15865    1.000
    Si3800   Si       0.64572    0.03885    0.23133    1.000
    Si3801   Si       0.63863    0.06119    0.15670    1.000
    N3802    N        0.68776    0.13220    0.21332    1.000
    Si3803   Si       0.66992    0.20339    0.14807    1.000
    Si3804   Si       0.66211    0.13391    0.17816    1.000
    N3805    N        0.66766    0.22129    0.18853    1.000
    N3806    N        0.67781    0.16241    0.15106    1.000
    N3807    N        0.67372    0.04136    0.31678    1.000
    Si3808   Si       0.67044    0.03215    0.36076    1.000
    N3809    N        0.65018    0.12213    0.33906    1.000
    N3810    N        0.65844    0.07394    0.25492    1.000
    Si3811   Si       0.64251    0.05526    0.29110    1.000
    Si3812   Si       0.67260    0.11598    0.25067    1.000
    Si3813   Si       0.68314    0.14414    0.35710    1.000
    Si3814   Si       0.66983    0.20957    0.32556    1.000
    N3815    N        0.67806    0.23097    0.36339    1.000
    N3816    N        0.68582    0.23908    0.29693    1.000
    N3817    N        0.64200    0.14330    0.26805    1.000
    N3818    N        0.68562    0.16928    0.32155    1.000
    Si3819   Si       0.63774    0.15373    0.31104    1.000
    Si3820   Si       0.64433    0.09915    0.46532    1.000
    N3821    N        0.67167    0.07363    0.44206    1.000
    N3822    N        0.64312    0.06078    0.37700    1.000
    Si3823   Si       0.63921    0.06067    0.41859    1.000
    Si3824   Si       0.63921    0.17276    0.48189    1.000
    N3825    N        0.67527    0.16693    0.39237    1.000
    N3826    N        0.64786    0.20147    0.43891    1.000
    N3827    N        0.65604    0.14029    0.45463    1.000
    Si3828   Si       0.64262    0.16397    0.42045    1.000
    Si3829   Si       0.68098    0.21474    0.46567    1.000
    Si3830   Si       0.69561    0.20761    0.39526    1.000
    N3831    N        0.66977    0.03262    0.55797    1.000
    Si3832   Si       0.64565    0.08855    0.61267    1.000
    Si3833   Si       0.66170    0.01337    0.59846    1.000
    N3834    N        0.64138    0.09180    0.56935    1.000
    Si3835   Si       0.65311    0.12967    0.55388    1.000
    Si3836   Si       0.63909    0.05782    0.54209    1.000
    N3837    N        0.66135    0.22600    0.56768    1.000
    Si3838   Si       0.66450    0.20219    0.60735    1.000
    N3839    N        0.65409    0.20993    0.50353    1.000
    Si3840   Si       0.63719    0.19129    0.54315    1.000
    Si3841   Si       0.65614    0.25378    0.50494    1.000
    N3842    N        0.69599    0.13511    0.54900    1.000
    N3843    N        0.64122    0.16335    0.57908    1.000
    N3844    N        0.64686    0.04769    0.62370    1.000
    N3845    N        0.68236    0.10425    0.62952    1.000
    Si3846   Si       0.68708    0.12426    0.72361    1.000
    N3847    N        0.64853    0.02528    0.73594    1.000
    N3848    N        0.64889    0.10797    0.73851    1.000
    Si3849   Si       0.64041    0.03250    0.66552    1.000
    N3850    N        0.68249    0.16868    0.72199    1.000
    N3851    N        0.67671    0.23921    0.63261    1.000
    Si3852   Si       0.68760    0.23127    0.67455    1.000
    Si3853   Si       0.64722    0.19383    0.72721    1.000
    N3854    N        0.65042    0.21726    0.69154    1.000
    Si3855   Si       0.66496    0.08061    0.82377    1.000
    N3856    N        0.64941    0.05656    0.85598    1.000
    N3857    N        0.68995    0.06427    0.78932    1.000
    N3858    N        0.69429    0.10831    0.84000    1.000
    Si3859   Si       0.67989    0.03111    0.87134    1.000
    Si3860   Si       0.68180    0.14564    0.85879    1.000
    Si3861   Si       0.65650    0.20031    0.79458    1.000
    N3862    N        0.64144    0.21501    0.83256    1.000
    N3863    N        0.63921    0.14310    0.86321    1.000
    N3864    N        0.63975    0.22149    0.75953    1.000
    Si3865   Si       0.66703    0.21603    0.86976    1.000
    Si3866   Si       0.68146    0.05735    0.94285    1.000
    N3867    N        0.68026    0.04932    0.98680    1.000
    N3868    N        0.68792    0.02517    0.91485    1.000
    N3869    N        0.63643    0.06080    0.93832    1.000
    N3870    N        0.67853    0.25773    0.87362    1.000
    N3871    N        0.67077    0.23812    0.98756    1.000
    Si3872   Si       0.68618    0.17506    0.92384    1.000
    N3873    N        0.68383    0.15614    0.96403    1.000
    N3874    N        0.65168    0.19159    0.90531    1.000
    Si3875   Si       0.64362    0.14177    0.97633    1.000
    N3876    N        0.68025    0.28653    0.09685    1.000
    N3877    N        0.67786    0.34293    0.05094    1.000
    Si3878   Si       0.66367    0.28012    0.00120    1.000
    N3879    N        0.64057    0.28849    0.03664    1.000
    Si3880   Si       0.63839    0.28079    0.10721    1.000
    Si3881   Si       0.69419    0.32687    0.08925    1.000
    Si3882   Si       0.66393    0.38372    0.04493    1.000
    N3883    N        0.67423    0.39748    0.00520    1.000
    Si3884   Si       0.66554    0.44153    0.01023    1.000
    N3885    N        0.65237    0.46237    0.11211    1.000
    N3886    N        0.68286    0.40948    0.07436    1.000
    Si3887   Si       0.67060    0.42189    0.11511    1.000
    Si3888   Si       0.69228    0.50353    0.02108    1.000
    N3889    N        0.69126    0.35526    0.12052    1.000
    Si3890   Si       0.65194    0.29146    0.18009    1.000
    N3891    N        0.68315    0.36386    0.22968    1.000
    Si3892   Si       0.64861    0.35317    0.13573    1.000
    N3893    N        0.69252    0.28327    0.19004    1.000
    Si3894   Si       0.64449    0.35570    0.21334    1.000
    N3895    N        0.64761    0.33427    0.17543    1.000
    N3896    N        0.63735    0.39730    0.20141    1.000
    N3897    N        0.64082    0.39610    0.13524    1.000
    Si3898   Si       0.64534    0.48483    0.14864    1.000
    Si3899   Si       0.69035    0.48201    0.21532    1.000
    N3900    N        0.67409    0.49829    0.17798    1.000
    Si3901   Si       0.67450    0.40632    0.22541    1.000
    N3902    N        0.66178    0.35748    0.29991    1.000
    N3903    N        0.64660    0.28174    0.32963    1.000
    Si3904   Si       0.68189    0.28247    0.30412    1.000
    Si3905   Si       0.67063    0.36724    0.34092    1.000
    N3906    N        0.68715    0.30126    0.26420    1.000
    Si3907   Si       0.69057    0.34497    0.27003    1.000
    Si3908   Si       0.65662    0.26719    0.36998    1.000
    N3909    N        0.66126    0.44856    0.31648    1.000
    N3910    N        0.66237    0.42013    0.26459    1.000
    Si3911   Si       0.68110    0.45757    0.27693    1.000
    Si3912   Si       0.64385    0.48212    0.33993    1.000
    N3913    N        0.67006    0.49055    0.25384    1.000
    Si3914   Si       0.64427    0.41024    0.30306    1.000
    N3915    N        0.63640    0.39577    0.34575    1.000
    N3916    N        0.68011    0.50521    0.33813    1.000
    Si3917   Si       0.67261    0.33642    0.41344    1.000
    N3918    N        0.67685    0.29244    0.39859    1.000
    N3919    N        0.69272    0.34851    0.37577    1.000
    N3920    N        0.66075    0.25959    0.46226    1.000
    N3921    N        0.65696    0.48076    0.46410    1.000
    Si3922   Si       0.67967    0.40324    0.49279    1.000
    N3923    N        0.66295    0.40665    0.40895    1.000
    N3924    N        0.64346    0.41400    0.46980    1.000
    Si3925   Si       0.63973    0.45208    0.49250    1.000
    Si3926   Si       0.65162    0.33716    0.59599    1.000
    N3927    N        0.65305    0.29245    0.59572    1.000
    N3928    N        0.66491    0.37141    0.51980    1.000
    Si3929   Si       0.68862    0.27937    0.61470    1.000
    N3930    N        0.69213    0.34494    0.57945    1.000
    Si3931   Si       0.63641    0.26240    0.57084    1.000
    N3932    N        0.68263    0.44460    0.50898    1.000
    N3933    N        0.64618    0.47020    0.60831    1.000
    N3934    N        0.64728    0.41754    0.56301    1.000
    Si3935   Si       0.68604    0.43175    0.55077    1.000
    Si3936   Si       0.68861    0.46072    0.62068    1.000
    N3937    N        0.66700    0.32630    0.69417    1.000
    Si3938   Si       0.66651    0.29089    0.72087    1.000
    N3939    N        0.63622    0.35693    0.63230    1.000
    N3940    N        0.64356    0.39290    0.68726    1.000
    Si3941   Si       0.68154    0.39383    0.71067    1.000
    N3942    N        0.68552    0.43593    0.71893    1.000
    Si3943   Si       0.64297    0.39868    0.64446    1.000
    N3944    N        0.67737    0.41693    0.62893    1.000
    N3945    N        0.64819    0.32149    0.84134    1.000
    Si3946   Si       0.66610    0.36208    0.84070    1.000
    N3947    N        0.68369    0.30010    0.76001    1.000
    N3948    N        0.67676    0.37597    0.75133    1.000
    Si3949   Si       0.64002    0.38310    0.77596    1.000
    N3950    N        0.65539    0.39588    0.81572    1.000
    Si3951   Si       0.66165    0.43839    0.82412    1.000
    N3952    N        0.67414    0.44563    0.86444    1.000
    N3953    N        0.68840    0.45549    0.79514    1.000
    Si3954   Si       0.64887    0.28931    0.87123    1.000
    N3955    N        0.65140    0.31091    0.90788    1.000
    Si3956   Si       0.67981    0.31367    0.94091    1.000
    N3957    N        0.64882    0.30479    0.96963    1.000
    N3958    N        0.67419    0.37636    0.88096    1.000
    N3959    N        0.65811    0.43347    0.92476    1.000
    Si3960   Si       0.68199    0.46521    0.90264    1.000
    N3961    N        0.64450    0.46840    0.98030    1.000
    Si3962   Si       0.65982    0.50750    0.96134    1.000
    Si3963   Si       0.65313    0.41332    0.88730    1.000
    N3964    N        0.67062    0.50297    0.91914    1.000
    Si3965   Si       0.64913    0.56411    0.03101    1.000
    N3966    N        0.65105    0.52031    0.02455    1.000
    N3967    N        0.68768    0.58382    0.03367    1.000
    Si3968   Si       0.68883    0.62640    0.03502    1.000
    N3969    N        0.64760    0.63328    0.05246    1.000
    N3970    N        0.67057    0.69619    0.04381    1.000
    Si3971   Si       0.66435    0.73913    0.04764    1.000
    N3972    N        0.65287    0.74899    0.00645    1.000
    Si3973   Si       0.63711    0.67079    0.03335    1.000
    Si3974   Si       0.65385    0.54174    0.17647    1.000
    N3975    N        0.67495    0.62109    0.14864    1.000
    N3976    N        0.64690    0.54463    0.21829    1.000
    N3977    N        0.69097    0.55678    0.16410    1.000
    Si3978   Si       0.67623    0.65737    0.17432    1.000
    N3979    N        0.66726    0.70037    0.15860    1.000
    Si3980   Si       0.63621    0.71896    0.18269    1.000
    N3981    N        0.69066    0.65882    0.21652    1.000
    N3982    N        0.64771    0.71810    0.22424    1.000
    Si3983   Si       0.66868    0.68620    0.24392    1.000
    N3984    N        0.65492    0.54796    0.28916    1.000
    Si3985   Si       0.67186    0.58405    0.35343    1.000
    Si3986   Si       0.66544    0.58973    0.27658    1.000
    N3987    N        0.67431    0.60777    0.31465    1.000
    Si3988   Si       0.64078    0.52238    0.25469    1.000
    Si3989   Si       0.69287    0.53464    0.30956    1.000
    N3990    N        0.67636    0.69690    0.33338    1.000
    N3991    N        0.64041    0.67864    0.27864    1.000
    Si3992   Si       0.63844    0.70495    0.31329    1.000
    N3993    N        0.68871    0.52240    0.40968    1.000
    Si3994   Si       0.65575    0.51511    0.43716    1.000
    N3995    N        0.66353    0.54600    0.46799    1.000
    N3996    N        0.67665    0.59252    0.39551    1.000
    Si3997   Si       0.68261    0.63026    0.41630    1.000
    Si3998   Si       0.64392    0.63489    0.49008    1.000
    N3999    N        0.66394    0.66177    0.39165    1.000
    N4000    N        0.67591    0.63027    0.45853    1.000
    N4001    N        0.67774    0.74535    0.49736    1.000
    N4002    N        0.67641    0.61373    0.56929    1.000
    N4003    N        0.67539    0.54561    0.57299    1.000
    N4004    N        0.63889    0.59798    0.51003    1.000
    Si4005   Si       0.67613    0.53508    0.61766    1.000
    Si4006   Si       0.65162    0.71455    0.59429    1.000
    N4007    N        0.67576    0.67952    0.58483    1.000
    N4008    N        0.67320    0.66391    0.51083    1.000
    N4009    N        0.67930    0.74762    0.60305    1.000
    Si4010   Si       0.67905    0.68990    0.54203    1.000
    Si4011   Si       0.68761    0.63980    0.60127    1.000
    N4012    N        0.64458    0.71965    0.55025    1.000
    Si4013   Si       0.65311    0.57149    0.72856    1.000
    N4014    N        0.67252    0.59515    0.69797    1.000
    Si4015   Si       0.66094    0.59876    0.65671    1.000
    N4016    N        0.68776    0.56976    0.63892    1.000
    N4017    N        0.67697    0.53762    0.74416    1.000
    N4018    N        0.67177    0.71958    0.74379    1.000
    Si4019   Si       0.68690    0.67296    0.66958    1.000
    N4020    N        0.67702    0.75515    0.66971    1.000
    Si4021   Si       0.65363    0.73684    0.70531    1.000
    N4022    N        0.65431    0.69775    0.68210    1.000
    N4023    N        0.67344    0.63918    0.64336    1.000
    Si4024   Si       0.66656    0.55485    0.82717    1.000
    Si4025   Si       0.68186    0.61504    0.77830    1.000
    N4026    N        0.68466    0.59399    0.81595    1.000
    N4027    N        0.68478    0.52136    0.80728    1.000
    Si4028   Si       0.65176    0.52173    0.77625    1.000
    N4029    N        0.64459    0.59917    0.75955    1.000
    Si4030   Si       0.69184    0.61644    0.85328    1.000
    N4031    N        0.66142    0.54941    0.87012    1.000
    N4032    N        0.65283    0.62190    0.87202    1.000
    Si4033   Si       0.64917    0.71974    0.85970    1.000
    Si4034   Si       0.66599    0.66886    0.81655    1.000
    N4035    N        0.66414    0.71265    0.81994    1.000
    Si4036   Si       0.65225    0.72969    0.78170    1.000
    N4037    N        0.68118    0.65989    0.77737    1.000
    Si4038   Si       0.68770    0.53651    0.90111    1.000
    Si4039   Si       0.64035    0.62448    0.91363    1.000
    N4040    N        0.67741    0.62976    0.93568    1.000
    N4041    N        0.67899    0.70037    0.95805    1.000
    Si4042   Si       0.68970    0.72318    0.92111    1.000
    N4043    N        0.64027    0.66218    0.99073    1.000
    Si4044   Si       0.67761    0.65939    0.96958    1.000
    Si4045   Si       0.64744    0.73235    0.96593    1.000
    N4046    N        0.67779    0.70177    0.88581    1.000
    N4047    N        0.66344    0.75562    0.93145    1.000
    N4048    N        0.67518    0.86921    0.03048    1.000
    Si4049   Si       0.64286    0.79216    0.00812    1.000
    N4050    N        0.68500    0.80714    0.00385    1.000
    N4051    N        0.64517    0.80053    0.11865    1.000
    Si4052   Si       0.63668    0.85731    0.04863    1.000
    N4053    N        0.68774    0.85648    0.12317    1.000
    Si4054   Si       0.67863    0.91307    0.02915    1.000
    Si4055   Si       0.67567    0.93615    0.09672    1.000
    N4056    N        0.67951    0.97902    0.09995    1.000
    N4057    N        0.65675    0.93698    0.05786    1.000
    N4058    N        0.63980    0.98578    0.00900    1.000
    Si4059   Si       0.64022    0.99976    0.11238    1.000
    Si4060   Si       0.65004    0.87651    0.12683    1.000
    Si4061   Si       0.68593    0.81381    0.12664    1.000
    Si4062   Si       0.64675    0.87928    0.20724    1.000
    N4063    N        0.68266    0.85518    0.21726    1.000
    Si4064   Si       0.65250    0.76291    0.22525    1.000
    N4065    N        0.69163    0.78692    0.23462    1.000
    N4066    N        0.64323    0.76187    0.18034    1.000
    Si4067   Si       0.67616    0.00188    0.17558    1.000
    N4068    N        0.64579    0.98311    0.15384    1.000
    N4069    N        0.65513    0.91923    0.12969    1.000
    N4070    N        0.65851    0.91959    0.21556    1.000
    N4071    N        0.67406    0.00869    0.21788    1.000
    Si4072   Si       0.64825    0.78042    0.32922    1.000
    N4073    N        0.67672    0.87318    0.35132    1.000
    N4074    N        0.68590    0.79334    0.31174    1.000
    N4075    N        0.67253    0.77376    0.36760    1.000
    Si4076   Si       0.66327    0.89708    0.31878    1.000
    N4077    N        0.67141    0.93958    0.33172    1.000
    N4078    N        0.67937    0.89592    0.27757    1.000
    N4079    N        0.68291    0.96589    0.27142    1.000
    Si4080   Si       0.66148    0.93061    0.25651    1.000
    Si4081   Si       0.63982    0.95970    0.35388    1.000
    Si4082   Si       0.66584    0.77058    0.46409    1.000
    N4083    N        0.65113    0.80865    0.47698    1.000
    Si4084   Si       0.65732    0.84366    0.44954    1.000
    N4085    N        0.65894    0.82879    0.40853    1.000
    Si4086   Si       0.65245    0.86416    0.38534    1.000
    Si4087   Si       0.67125    0.78708    0.40867    1.000
    N4088    N        0.64253    0.75868    0.42928    1.000
    N4089    N        0.63875    0.91334    0.49025    1.000
    Si4090   Si       0.66236    0.93411    0.46263    1.000
    N4091    N        0.67236    0.96793    0.49261    1.000
    N4092    N        0.65960    0.88966    0.42088    1.000
    Si4093   Si       0.65979    0.99256    0.41883    1.000
    N4094    N        0.66336    0.99177    0.37528    1.000
    N4095    N        0.64229    0.95553    0.43229    1.000
    N4096    N        0.66211    0.78965    0.54868    1.000
    N4097    N        0.64571    0.85754    0.57809    1.000
    Si4098   Si       0.65028    0.83089    0.53995    1.000
    N4099    N        0.68555    0.86372    0.53100    1.000
    N4100    N        0.69101    0.81892    0.60525    1.000
    Si4101   Si       0.69065    0.78471    0.58144    1.000
    Si4102   Si       0.64690    0.75624    0.52727    1.000
    Si4103   Si       0.67838    0.88590    0.56696    1.000
    N4104    N        0.66305    0.92434    0.56088    1.000
    Si4105   Si       0.65061    0.94463    0.52380    1.000
    Si4106   Si       0.65315    0.83602    0.62188    1.000
    N4107    N        0.65673    0.78003    0.72183    1.000
    N4108    N        0.65888    0.82427    0.66595    1.000
    Si4109   Si       0.67935    0.79441    0.68738    1.000
    N4110    N        0.64240    0.87972    0.63703    1.000
    Si4111   Si       0.63564    0.86111    0.67897    1.000
    N4112    N        0.68948    0.93834    0.64133    1.000
    Si4113   Si       0.68175    0.91237    0.72746    1.000
    Si4114   Si       0.67285    0.99400    0.71751    1.000
    N4115    N        0.67098    0.00296    0.67547    1.000
    N4116    N        0.66775    0.88947    0.69403    1.000
    N4117    N        0.66604    0.95254    0.72206    1.000
    Si4118   Si       0.65598    0.91637    0.65743    1.000
    N4119    N        0.65449    0.82076    0.84208    1.000
    N4120    N        0.64553    0.77132    0.79131    1.000
    N4121    N        0.64270    0.76176    0.86523    1.000
    Si4122   Si       0.63461    0.78571    0.83072    1.000
    N4123    N        0.67101    0.89034    0.76557    1.000
    N4124    N        0.66209    0.99281    0.85702    1.000
    N4125    N        0.67884    0.92061    0.84821    1.000
    Si4126   Si       0.64669    0.98693    0.81605    1.000
    Si4127   Si       0.63977    0.91131    0.83349    1.000
    N4128    N        0.68196    0.99118    0.79103    1.000
    Si4129   Si       0.69076    0.96080    0.86059    1.000
    Si4130   Si       0.63988    0.84356    0.87613    1.000
    N4131    N        0.67621    0.86672    0.89328    1.000
    Si4132   Si       0.66184    0.78352    0.89702    1.000
    N4133    N        0.64124    0.84991    0.96916    1.000
    Si4134   Si       0.66373    0.86930    0.93423    1.000
    Si4135   Si       0.68037    0.84843    0.99193    1.000
    N4136    N        0.69337    0.98014    0.97227    1.000
    Si4137   Si       0.68397    0.98469    0.93067    1.000
    N4138    N        0.65889    0.91833    0.99026    1.000
    Si4139   Si       0.64204    0.95513    0.97567    1.000
    N4140    N        0.64087    0.98198    0.93969    1.000
    Si4141   Si       0.73182    0.04271    0.03566    1.000
    N4142    N        0.71459    0.03997    0.10291    1.000
    N4143    N        0.70680    0.07674    0.04831    1.000
    Si4144   Si       0.71814    0.08203    0.09017    1.000
    N4145    N        0.70040    0.01028    0.03871    1.000
    Si4146   Si       0.71515    0.19582    0.05615    1.000
    N4147    N        0.71736    0.23959    0.06167    1.000
    Si4148   Si       0.71000    0.25472    0.10086    1.000
    Si4149   Si       0.70652    0.14893    0.11930    1.000
    N4150    N        0.69424    0.17872    0.08906    1.000
    N4151    N        0.69362    0.18200    0.02228    1.000
    Si4152   Si       0.71864    0.03561    0.14542    1.000
    N4153    N        0.74875    0.07786    0.22698    1.000
    N4154    N        0.75041    0.06130    0.15616    1.000
    Si4155   Si       0.71100    0.23940    0.18654    1.000
    N4156    N        0.72785    0.19327    0.18724    1.000
    Si4157   Si       0.71774    0.16573    0.22098    1.000
    N4158    N        0.70168    0.23110    0.13784    1.000
    N4159    N        0.71647    0.24655    0.23197    1.000
    N4160    N        0.74422    0.14545    0.13845    1.000
    Si4161   Si       0.71503    0.03163    0.30881    1.000
    N4162    N        0.71166    0.11989    0.27481    1.000
    N4163    N        0.74122    0.06566    0.31973    1.000
    Si4164   Si       0.73130    0.08167    0.35984    1.000
    N4165    N        0.72081    0.12383    0.36140    1.000
    N4166    N        0.72260    0.02247    0.26880    1.000
    Si4167   Si       0.74713    0.11193    0.25394    1.000
    Si4168   Si       0.71746    0.15826    0.29363    1.000
    Si4169   Si       0.71748    0.22542    0.26919    1.000
    N4170    N        0.70909    0.18431    0.25829    1.000
    N4171    N        0.70708    0.05037    0.37854    1.000
    Si4172   Si       0.72577    0.03050    0.41340    1.000
    N4173    N        0.73823    0.06158    0.44068    1.000
    Si4174   Si       0.70551    0.06495    0.46932    1.000
    N4175    N        0.70651    0.10476    0.48685    1.000
    N4176    N        0.73041    0.13088    0.42692    1.000
    Si4177   Si       0.74051    0.14974    0.38836    1.000
    N4178    N        0.70603    0.22824    0.43271    1.000
    N4179    N        0.70645    0.17915    0.47644    1.000
    Si4180   Si       0.74688    0.23368    0.45208    1.000
    N4181    N        0.73254    0.19305    0.38068    1.000
    Si4182   Si       0.70098    0.13995    0.45793    1.000
    Si4183   Si       0.72287    0.11173    0.52479    1.000
    N4184    N        0.72638    0.07484    0.54915    1.000
    Si4185   Si       0.70923    0.03580    0.53998    1.000
    Si4186   Si       0.75138    0.08575    0.58444    1.000
    N4187    N        0.70490    0.03119    0.49681    1.000
    N4188    N        0.74996    0.13004    0.58321    1.000
    Si4189   Si       0.73859    0.18368    0.50504    1.000
    Si4190   Si       0.72061    0.16202    0.57202    1.000
    N4191    N        0.72304    0.19954    0.54345    1.000
    N4192    N        0.70239    0.17839    0.60797    1.000
    Si4193   Si       0.70118    0.23502    0.55350    1.000
    N4194    N        0.75142    0.14484    0.51525    1.000
    N4195    N        0.74078    0.07648    0.62693    1.000
    Si4196   Si       0.71721    0.10794    0.65142    1.000
    Si4197   Si       0.74638    0.08015    0.70490    1.000
    N4198    N        0.71017    0.10075    0.69489    1.000
    N4199    N        0.74586    0.04126    0.68335    1.000
    N4200    N        0.74488    0.07634    0.74749    1.000
    N4201    N        0.71137    0.01034    0.73334    1.000
    N4202    N        0.74750    0.19947    0.74114    1.000
    N4203    N        0.72350    0.20745    0.66941    1.000
    Si4204   Si       0.73340    0.18197    0.63698    1.000
    N4205    N        0.74238    0.14312    0.65325    1.000
    Si4206   Si       0.73091    0.08513    0.84747    1.000
    N4207    N        0.71846    0.04326    0.85375    1.000
    Si4208   Si       0.72110    0.09388    0.78006    1.000
    N4209    N        0.74166    0.02402    0.79321    1.000
    Si4210   Si       0.70217    0.02467    0.77286    1.000
    Si4211   Si       0.73991    0.01227    0.83448    1.000
    N4212    N        0.71368    0.13180    0.75926    1.000
    N4213    N        0.75486    0.09223    0.80990    1.000
    Si4214   Si       0.72500    0.19043    0.82090    1.000
    Si4215   Si       0.71476    0.17397    0.75157    1.000
    N4216    N        0.69609    0.18712    0.85331    1.000
    N4217    N        0.69908    0.19600    0.78599    1.000
    N4218    N        0.75056    0.04869    0.99695    1.000
    Si4219   Si       0.73100    0.11667    0.91368    1.000
    Si4220   Si       0.74376    0.08192    0.97278    1.000
    N4221    N        0.71638    0.08452    0.93941    1.000
    N4222    N        0.72399    0.11133    0.99641    1.000
    Si4223   Si       0.70652    0.24078    0.96053    1.000
    N4224    N        0.69717    0.13921    0.89996    1.000
    Si4225   Si       0.71103    0.15259    0.99675    1.000
    N4226    N        0.74196    0.24285    0.98820    1.000
    N4227    N        0.71505    0.20605    0.93462    1.000
    N4228    N        0.75098    0.17381    0.98890    1.000
    N4229    N        0.74375    0.24954    0.87751    1.000
    Si4230   Si       0.75272    0.18800    0.94840    1.000
    Si4231   Si       0.71428    0.32826    0.03105    1.000
    N4232    N        0.73513    0.32753    0.06965    1.000
    N4233    N        0.70369    0.29179    0.01295    1.000
    N4234    N        0.73233    0.35506    0.00322    1.000
    Si4235   Si       0.73010    0.25999    0.02631    1.000
    N4236    N        0.74897    0.27227    0.11040    1.000
    Si4237   Si       0.72650    0.41767    0.06957    1.000
    N4238    N        0.73465    0.46023    0.08454    1.000
    N4239    N        0.70291    0.46221    0.01938    1.000
    Si4240   Si       0.74797    0.49820    0.07060    1.000
    Si4241   Si       0.73631    0.44100    0.00155    1.000
    N4242    N        0.74811    0.41193    0.03184    1.000
    N4243    N        0.74930    0.39618    0.09886    1.000
    Si4244   Si       0.71241    0.28909    0.22921    1.000
    N4245    N        0.73976    0.36983    0.16822    1.000
    N4246    N        0.74952    0.30918    0.22617    1.000
    Si4247   Si       0.72413    0.38239    0.13094    1.000
    N4248    N        0.69958    0.43916    0.21351    1.000
    Si4249   Si       0.73873    0.45066    0.12713    1.000
    N4250    N        0.73253    0.48904    0.14555    1.000
    N4251    N        0.70586    0.42223    0.13720    1.000
    N4252    N        0.71196    0.29949    0.33127    1.000
    N4253    N        0.73316    0.34640    0.27831    1.000
    Si4254   Si       0.74602    0.32144    0.31406    1.000
    Si4255   Si       0.72876    0.37425    0.36591    1.000
    Si4256   Si       0.71158    0.30876    0.37336    1.000
    N4257    N        0.71978    0.45347    0.29788    1.000
    N4258    N        0.70468    0.39672    0.33667    1.000
    Si4259   Si       0.70070    0.43959    0.33520    1.000
    N4260    N        0.73687    0.27507    0.46422    1.000
    Si4261   Si       0.72505    0.34541    0.47489    1.000
    N4262    N        0.74350    0.29694    0.39924    1.000
    Si4263   Si       0.69304    0.27825    0.43909    1.000
    N4264    N        0.69365    0.32495    0.44999    1.000
    N4265    N        0.73781    0.40118    0.39868    1.000
    N4266    N        0.71529    0.38647    0.47514    1.000
    Si4267   Si       0.69800    0.47361    0.47673    1.000
    Si4268   Si       0.74191    0.41643    0.46382    1.000
    Si4269   Si       0.70253    0.42842    0.40947    1.000
    Si4270   Si       0.70165    0.49889    0.37640    1.000
    N4271    N        0.71408    0.44411    0.44767    1.000
    N4272    N        0.70056    0.45488    0.37509    1.000
    Si4273   Si       0.72617    0.33674    0.60509    1.000
    N4274    N        0.72678    0.32707    0.51457    1.000
    Si4275   Si       0.72997    0.28385    0.50705    1.000
    Si4276   Si       0.70186    0.35822    0.53741    1.000
    N4277    N        0.71725    0.26159    0.58433    1.000
    N4278    N        0.69629    0.25946    0.51844    1.000
    N4279    N        0.74452    0.37528    0.62149    1.000
    N4280    N        0.71537    0.40108    0.54390    1.000
    N4281    N        0.70386    0.45862    0.57822    1.000
    Si4282   Si       0.74379    0.45858    0.59407    1.000
    N4283    N        0.70686    0.37763    0.67776    1.000
    Si4284   Si       0.70687    0.33256    0.67658    1.000
    N4285    N        0.74296    0.31386    0.69685    1.000
    Si4286   Si       0.73591    0.27300    0.71238    1.000
    N4287    N        0.70760    0.31451    0.63617    1.000
    N4288    N        0.69605    0.26493    0.69867    1.000
    Si4289   Si       0.71746    0.40254    0.64285    1.000
    N4290    N        0.70383    0.50128    0.62759    1.000
    N4291    N        0.73376    0.44250    0.63368    1.000
    N4292    N        0.72991    0.29201    0.82155    1.000
    Si4293   Si       0.72157    0.29910    0.77889    1.000
    Si4294   Si       0.73126    0.32934    0.84236    1.000
    N4295    N        0.73757    0.33973    0.76884    1.000
    Si4296   Si       0.71021    0.37256    0.77981    1.000
    N4297    N        0.70678    0.35795    0.82145    1.000
    N4298    N        0.74152    0.26818    0.75547    1.000
    N4299    N        0.72805    0.41065    0.76939    1.000
    Si4300   Si       0.71370    0.49023    0.79918    1.000
    N4301    N        0.72465    0.48855    0.75555    1.000
    Si4302   Si       0.70531    0.44663    0.75430    1.000
    N4303    N        0.75386    0.49755    0.81493    1.000
    N4304    N        0.71776    0.32010    0.88336    1.000
    Si4305   Si       0.71438    0.27715    0.89367    1.000
    Si4306   Si       0.70715    0.35946    0.90297    1.000
    N4307    N        0.70427    0.27780    0.93695    1.000
    N4308    N        0.69533    0.35427    0.94443    1.000
    Si4309   Si       0.70243    0.37793    0.97910    1.000
    Si4310   Si       0.73935    0.42288    0.92602    1.000
    N4311    N        0.72353    0.46372    0.91642    1.000
    N4312    N        0.72492    0.41487    0.96699    1.000
    N4313    N        0.73861    0.39259    0.89757    1.000
    Si4314   Si       0.75034    0.49644    0.90641    1.000
    Si4315   Si       0.72758    0.56436    0.03626    1.000
    N4316    N        0.71897    0.52398    0.04964    1.000
    Si4317   Si       0.74710    0.62254    0.08352    1.000
    N4318    N        0.71538    0.64469    0.06371    1.000
    N4319    N        0.71328    0.70823    0.09549    1.000
    Si4320   Si       0.71061    0.68836    0.05793    1.000
    N4321    N        0.74406    0.69571    0.02764    1.000
    Si4322   Si       0.72751    0.74987    0.09199    1.000
    N4323    N        0.70652    0.64596    0.99955    1.000
    N4324    N        0.72625    0.50629    0.21426    1.000
    N4325    N        0.73803    0.60967    0.12365    1.000
    Si4326   Si       0.71595    0.52089    0.17242    1.000
    N4327    N        0.73299    0.60960    0.18637    1.000
    Si4328   Si       0.70770    0.59406    0.15249    1.000
    Si4329   Si       0.71933    0.62620    0.22704    1.000
    N4330    N        0.75358    0.54444    0.16487    1.000
    N4331    N        0.72291    0.67021    0.15539    1.000
    N4332    N        0.73365    0.73921    0.14344    1.000
    Si4333   Si       0.70622    0.70599    0.13798    1.000
    Si4334   Si       0.74990    0.63832    0.15402    1.000
    N4335    N        0.72612    0.53956    0.28091    1.000
    N4336    N        0.70641    0.56141    0.34217    1.000
    Si4337   Si       0.71675    0.62002    0.31860    1.000
    Si4338   Si       0.74158    0.58014    0.26870    1.000
    Si4339   Si       0.74644    0.55390    0.36059    1.000
    N4340    N        0.70395    0.59718    0.25583    1.000
    Si4341   Si       0.74890    0.52062    0.24636    1.000
    N4342    N        0.75487    0.59314    0.30764    1.000
    N4343    N        0.71884    0.64149    0.35609    1.000
    N4344    N        0.74033    0.71738    0.31172    1.000
    N4345    N        0.71865    0.65485    0.29067    1.000
    Si4346   Si       0.73641    0.72925    0.26748    1.000
    Si4347   Si       0.70492    0.69316    0.30147    1.000
    N4348    N        0.69660    0.71350    0.26581    1.000
    Si4349   Si       0.69712    0.67848    0.36853    1.000
    N4350    N        0.74391    0.51075    0.37234    1.000
    Si4351   Si       0.70749    0.56229    0.41284    1.000
    N4352    N        0.74159    0.58166    0.39275    1.000
    N4353    N        0.72402    0.57266    0.45210    1.000
    Si4354   Si       0.74550    0.61022    0.44896    1.000
    Si4355   Si       0.70449    0.54808    0.48135    1.000
    Si4356   Si       0.74765    0.62368    0.38340    1.000
    N4357    N        0.72400    0.50876    0.47620    1.000
    N4358    N        0.72768    0.63975    0.42048    1.000
    N4359    N        0.74268    0.63183    0.48749    1.000
    N4360    N        0.72063    0.70410    0.39543    1.000
    Si4361   Si       0.71408    0.72137    0.49483    1.000
    Si4362   Si       0.73778    0.68163    0.42948    1.000
    N4363    N        0.71667    0.69078    0.46489    1.000
    Si4364   Si       0.70599    0.65257    0.48293    1.000
    N4365    N        0.74575    0.74969    0.48794    1.000
    N4366    N        0.74063    0.58502    0.56934    1.000
    N4367    N        0.71243    0.56937    0.51712    1.000
    Si4368   Si       0.69827    0.57891    0.55780    1.000
    N4369    N        0.73119    0.64441    0.60173    1.000
    N4370    N        0.71874    0.70551    0.53482    1.000
    N4371    N        0.75302    0.71147    0.59250    1.000
    Si4372   Si       0.74568    0.51356    0.62847    1.000
    N4373    N        0.73714    0.61253    0.67912    1.000
    Si4374   Si       0.72674    0.57470    0.66161    1.000
    N4375    N        0.73229    0.54768    0.70036    1.000
    Si4376   Si       0.70734    0.61914    0.70899    1.000
    Si4377   Si       0.71846    0.52896    0.73958    1.000
    N4378    N        0.71658    0.69892    0.64809    1.000
    Si4379   Si       0.74701    0.68069    0.62341    1.000
    Si4380   Si       0.70342    0.73921    0.64023    1.000
    N4381    N        0.70102    0.66135    0.70967    1.000
    Si4382   Si       0.69841    0.68484    0.74536    1.000
    N4383    N        0.71521    0.60961    0.75080    1.000
    Si4384   Si       0.74719    0.56442    0.86883    1.000
    N4385    N        0.75220    0.55160    0.76159    1.000
    Si4386   Si       0.75587    0.59595    0.75810    1.000
    N4387    N        0.74183    0.68627    0.75844    1.000
    N4388    N        0.73141    0.72346    0.84487    1.000
    Si4389   Si       0.71534    0.68851    0.86560    1.000
    N4390    N        0.70008    0.65648    0.84049    1.000
    N4391    N        0.69748    0.51513    0.97964    1.000
    N4392    N        0.69815    0.56392    0.93275    1.000
    Si4393   Si       0.72644    0.54265    0.96202    1.000
    N4394    N        0.72670    0.52824    0.88426    1.000
    N4395    N        0.74643    0.61554    0.94371    1.000
    Si4396   Si       0.70991    0.60316    0.92299    1.000
    N4397    N        0.71869    0.59601    0.88006    1.000
    N4398    N        0.74036    0.56720    0.99556    1.000
    N4399    N        0.74549    0.66541    0.88741    1.000
    N4400    N        0.72964    0.73730    0.91360    1.000
    Si4401   Si       0.74621    0.66426    0.99634    1.000
    N4402    N        0.72358    0.79243    0.10938    1.000
    Si4403   Si       0.71766    0.78572    0.02518    1.000
    N4404    N        0.74674    0.81398    0.04422    1.000
    N4405    N        0.74539    0.76263    0.00052    1.000
    Si4406   Si       0.72261    0.88257    0.11825    1.000
    N4407    N        0.70138    0.75988    0.05599    1.000
    Si4408   Si       0.75387    0.81733    0.08701    1.000
    N4409    N        0.75195    0.86752    0.00010    1.000
    N4410    N        0.74287    0.97493    0.07204    1.000
    N4411    N        0.71330    0.91455    0.09163    1.000
    Si4412   Si       0.73554    0.93336    0.06070    1.000
    N4413    N        0.71534    0.93273    0.02279    1.000
    Si4414   Si       0.70929    0.00167    0.08039    1.000
    Si4415   Si       0.73323    0.78199    0.15013    1.000
    Si4416   Si       0.70716    0.81863    0.20721    1.000
    N4417    N        0.69996    0.80510    0.16717    1.000
    N4418    N        0.74973    0.83466    0.20595    1.000
    Si4419   Si       0.75086    0.87701    0.19667    1.000
    Si4420   Si       0.70532    0.99144    0.24376    1.000
    N4421    N        0.73535    0.89451    0.23399    1.000
    N4422    N        0.71996    0.99672    0.16594    1.000
    N4423    N        0.73882    0.89515    0.15917    1.000
    Si4424   Si       0.75054    0.98290    0.19187    1.000
    N4425    N        0.73499    0.96369    0.22939    1.000
    N4426    N        0.72518    0.83691    0.27278    1.000
    Si4427   Si       0.70729    0.78794    0.34906    1.000
    Si4428   Si       0.70847    0.79609    0.27418    1.000
    Si4429   Si       0.72056    0.86708    0.35905    1.000
    N4430    N        0.74200    0.76928    0.27724    1.000
    N4431    N        0.74562    0.76660    0.35416    1.000
    Si4432   Si       0.70270    0.86978    0.25289    1.000
    N4433    N        0.71993    0.82503    0.36264    1.000
    N4434    N        0.74869    0.87699    0.32659    1.000
    N4435    N        0.72036    0.99405    0.33042    1.000
    N4436    N        0.73879    0.93796    0.29580    1.000
    Si4437   Si       0.70405    0.96022    0.30811    1.000
    Si4438   Si       0.74635    0.92938    0.25399    1.000
    N4439    N        0.75161    0.93923    0.36187    1.000
    Si4440   Si       0.75370    0.98358    0.35606    1.000
    N4441    N        0.70231    0.78584    0.44005    1.000
    Si4442   Si       0.73537    0.78796    0.47085    1.000
    N4443    N        0.69780    0.86113    0.46153    1.000
    N4444    N        0.74606    0.89731    0.49671    1.000
    Si4445   Si       0.70132    0.88943    0.42985    1.000
    N4446    N        0.74093    0.97228    0.49003    1.000
    Si4447   Si       0.70408    0.99166    0.47718    1.000
    Si4448   Si       0.74221    0.93317    0.47142    1.000
    N4449    N        0.72999    0.88495    0.39793    1.000
    N4450    N        0.69817    0.00371    0.43551    1.000
    N4451    N        0.70397    0.92843    0.44974    1.000
    Si4452   Si       0.72466    0.84563    0.60242    1.000
    N4453    N        0.73002    0.77410    0.56454    1.000
    N4454    N        0.73040    0.81825    0.50207    1.000
    Si4455   Si       0.74598    0.80398    0.53768    1.000
    N4456    N        0.75000    0.83668    0.56727    1.000
    Si4457   Si       0.71720    0.86140    0.50146    1.000
    N4458    N        0.70997    0.88555    0.59706    1.000
    Si4459   Si       0.73643    0.98926    0.59409    1.000
    N4460    N        0.74295    0.94698    0.59618    1.000
    N4461    N        0.70029    0.99985    0.61511    1.000
    N4462    N        0.73317    0.00304    0.55293    1.000
    N4463    N        0.72111    0.80487    0.69171    1.000
    N4464    N        0.73705    0.76608    0.63384    1.000
    Si4465   Si       0.75144    0.79864    0.65885    1.000
    N4466    N        0.75124    0.83593    0.63546    1.000
    Si4467   Si       0.74992    0.88135    0.74125    1.000
    Si4468   Si       0.70007    0.97853    0.65278    1.000
    Si4469   Si       0.72346    0.91853    0.62192    1.000
    N4470    N        0.72584    0.91145    0.72449    1.000
    Si4471   Si       0.74897    0.93167    0.69241    1.000
    N4472    N        0.73401    0.96970    0.68106    1.000
    N4473    N        0.74773    0.90506    0.65713    1.000
    Si4474   Si       0.74407    0.00372    0.70612    1.000
    N4475    N        0.71692    0.79753    0.81017    1.000
    N4476    N        0.72413    0.85478    0.76531    1.000
    Si4477   Si       0.74360    0.82007    0.78437    1.000
    N4478    N        0.70769    0.86269    0.83228    1.000
    Si4479   Si       0.73561    0.76325    0.82821    1.000
    Si4480   Si       0.69825    0.82158    0.84251    1.000
    Si4481   Si       0.70465    0.88237    0.79192    1.000
    N4482    N        0.72945    0.97050    0.84266    1.000
    N4483    N        0.73231    0.91530    0.79733    1.000
    Si4484   Si       0.70304    0.88830    0.86675    1.000
    Si4485   Si       0.73540    0.77772    0.89633    1.000
    N4486    N        0.70041    0.86271    0.95633    1.000
    N4487    N        0.70094    0.79636    0.88192    1.000
    N4488    N        0.75226    0.80071    0.93158    1.000
    Si4489   Si       0.73969    0.88183    0.95920    1.000
    N4490    N        0.70134    0.95705    0.90266    1.000
    N4491    N        0.74046    0.90094    0.88696    1.000
    N4492    N        0.73337    0.92311    0.95398    1.000
    Si4493   Si       0.72448    0.95328    0.98388    1.000
    Si4494   Si       0.73670    0.93493    0.91268    1.000
    Si4495   Si       0.79183    0.07168    0.07824    1.000
    N4496    N        0.76857    0.03882    0.05995    1.000
    N4497    N        0.75924    0.09550    0.09352    1.000
    Si4498   Si       0.77873    0.18258    0.02196    1.000
    Si4499   Si       0.78043    0.18960    0.09140    1.000
    N4500    N        0.80083    0.15059    0.09742    1.000
    N4501    N        0.79870    0.22044    0.01039    1.000
    N4502    N        0.75366    0.18274    0.05708    1.000
    N4503    N        0.80988    0.15492    0.02620    1.000
    Si4504   Si       0.77885    0.12228    0.12185    1.000
    Si4505   Si       0.77227    0.05947    0.19232    1.000
    N4506    N        0.76240    0.01975    0.21007    1.000
    N4507    N        0.80697    0.10812    0.15123    1.000
    N4508    N        0.81251    0.06624    0.20908    1.000
    N4509    N        0.75449    0.25724    0.18022    1.000
    Si4510   Si       0.75889    0.18117    0.16003    1.000
    N4511    N        0.79879    0.17797    0.17898    1.000
    Si4512   Si       0.76873    0.24720    0.14012    1.000
    N4513    N        0.76385    0.20781    0.12716    1.000
    Si4514   Si       0.79509    0.16072    0.22081    1.000
    N4515    N        0.75578    0.14491    0.22803    1.000
    Si4516   Si       0.78223    0.07206    0.30256    1.000
    N4517    N        0.79005    0.03500    0.27671    1.000
    N4518    N        0.78714    0.10060    0.27044    1.000
    N4519    N        0.81088    0.06926    0.33266    1.000
    Si4520   Si       0.75727    0.03929    0.24787    1.000
    Si4521   Si       0.77832    0.24811    0.31732    1.000
    Si4522   Si       0.78536    0.19565    0.28537    1.000
    N4523    N        0.78960    0.22901    0.35503    1.000
    N4524    N        0.76016    0.16109    0.29866    1.000
    N4525    N        0.81005    0.18744    0.25097    1.000
    N4526    N        0.75557    0.22706    0.28815    1.000
    Si4527   Si       0.75727    0.09713    0.42636    1.000
    N4528    N        0.76843    0.08237    0.38430    1.000
    N4529    N        0.79624    0.10954    0.44171    1.000
    Si4530   Si       0.81034    0.07367    0.37779    1.000
    N4531    N        0.78374    0.16098    0.39277    1.000
    Si4532   Si       0.80700    0.20461    0.49110    1.000
    N4533    N        0.77729    0.23084    0.42183    1.000
    Si4534   Si       0.77351    0.20339    0.38601    1.000
    N4535    N        0.76379    0.21113    0.48454    1.000
    N4536    N        0.78871    0.06522    0.57632    1.000
    N4537    N        0.78853    0.02349    0.51700    1.000
    N4538    N        0.79823    0.09677    0.51246    1.000
    Si4539   Si       0.80350    0.06043    0.53602    1.000
    N4540    N        0.80995    0.15178    0.56078    1.000
    Si4541   Si       0.79345    0.13892    0.52202    1.000
    Si4542   Si       0.78537    0.15006    0.59801    1.000
    N4543    N        0.76923    0.18931    0.61208    1.000
    Si4544   Si       0.79973    0.22104    0.61117    1.000
    N4545    N        0.78766    0.25133    0.58362    1.000
    Si4546   Si       0.80595    0.25312    0.54427    1.000
    Si4547   Si       0.76366    0.04414    0.64452    1.000
    N4548    N        0.78342    0.10007    0.69088    1.000
    N4549    N        0.80537    0.05785    0.64515    1.000
    N4550    N        0.80818    0.23464    0.64992    1.000
    N4551    N        0.80738    0.13418    0.63129    1.000
    Si4552   Si       0.75716    0.20460    0.69857    1.000
    N4553    N        0.78792    0.17514    0.68979    1.000
    N4554    N        0.76939    0.24713    0.69829    1.000
    Si4555   Si       0.78252    0.13755    0.66802    1.000
    Si4556   Si       0.80859    0.25430    0.68608    1.000
    Si4557   Si       0.77931    0.07843    0.77535    1.000
    N4558    N        0.80304    0.04291    0.78118    1.000
    N4559    N        0.80113    0.11786    0.77530    1.000
    Si4560   Si       0.78203    0.12743    0.81437    1.000
    N4561    N        0.77894    0.00729    0.85117    1.000
    Si4562   Si       0.79716    0.10101    0.87603    1.000
    Si4563   Si       0.78684    0.19529    0.82899    1.000
    Si4564   Si       0.76139    0.23040    0.76925    1.000
    N4565    N        0.80272    0.24594    0.77285    1.000
    N4566    N        0.75726    0.16155    0.82334    1.000
    N4567    N        0.79880    0.21349    0.86671    1.000
    N4568    N        0.75586    0.22214    0.81273    1.000
    N4569    N        0.75480    0.10601    0.87789    1.000
    Si4570   Si       0.80587    0.05909    0.93297    1.000
    N4571    N        0.78166    0.09058    0.95148    1.000
    N4572    N        0.79024    0.02092    0.94821    1.000
    N4573    N        0.80256    0.06042    0.89145    1.000
    Si4574   Si       0.78255    0.01732    0.99477    1.000
    Si4575   Si       0.79293    0.13075    0.94247    1.000
    N4576    N        0.78535    0.21661    0.94001    1.000
    N4577    N        0.75603    0.15010    0.92897    1.000
    Si4578   Si       0.77973    0.23344    0.89897    1.000
    Si4579   Si       0.78256    0.24231    0.97638    1.000
    Si4580   Si       0.76513    0.29849    0.08057    1.000
    N4581    N        0.76599    0.28067    0.03852    1.000
    Si4582   Si       0.80070    0.29554    0.01505    1.000
    N4583    N        0.79905    0.34074    0.01561    1.000
    N4584    N        0.80582    0.31084    0.09411    1.000
    Si4585   Si       0.76828    0.37547    0.01411    1.000
    Si4586   Si       0.80296    0.48373    0.01235    1.000
    Si4587   Si       0.79159    0.40510    0.10830    1.000
    N4588    N        0.78373    0.49741    0.04650    1.000
    N4589    N        0.79370    0.36029    0.21510    1.000
    Si4590   Si       0.78005    0.35771    0.17459    1.000
    N4591    N        0.78578    0.31617    0.16646    1.000
    Si4592   Si       0.77702    0.28872    0.20135    1.000
    N4593    N        0.80303    0.37904    0.14347    1.000
    N4594    N        0.78301    0.44328    0.12855    1.000
    N4595    N        0.80526    0.49955    0.15891    1.000
    N4596    N        0.77745    0.29117    0.31194    1.000
    Si4597   Si       0.79829    0.36059    0.35161    1.000
    N4598    N        0.79539    0.34639    0.28202    1.000
    N4599    N        0.75657    0.34918    0.34520    1.000
    Si4600   Si       0.76618    0.34115    0.24934    1.000
    Si4601   Si       0.81417    0.31397    0.30246    1.000
    N4602    N        0.81007    0.39777    0.32871    1.000
    Si4603   Si       0.80456    0.39069    0.28512    1.000
    N4604    N        0.78808    0.47403    0.32469    1.000
    N4605    N        0.77392    0.49203    0.26626    1.000
    N4606    N        0.77602    0.42232    0.27566    1.000
    Si4607   Si       0.80627    0.50298    0.29420    1.000
    Si4608   Si       0.76108    0.46004    0.29074    1.000
    Si4609   Si       0.80878    0.43857    0.34114    1.000
    Si4610   Si       0.78011    0.48792    0.37040    1.000
    N4611    N        0.76276    0.33955    0.45416    1.000
    Si4612   Si       0.80425    0.33020    0.46447    1.000
    N4613    N        0.80313    0.29218    0.44302    1.000
    Si4614   Si       0.76156    0.29952    0.43826    1.000
    N4615    N        0.80513    0.37629    0.39134    1.000
    N4616    N        0.79562    0.48233    0.46496    1.000
    Si4617   Si       0.78031    0.40980    0.40311    1.000
    Si4618   Si       0.79763    0.44166    0.47867    1.000
    N4619    N        0.79292    0.44557    0.38107    1.000
    N4620    N        0.78300    0.41579    0.44595    1.000
    Si4621   Si       0.76752    0.33143    0.53596    1.000
    N4622    N        0.77483    0.37463    0.54027    1.000
    N4623    N        0.79947    0.32411    0.50721    1.000
    N4624    N        0.76460    0.27378    0.53319    1.000
    Si4625   Si       0.75462    0.27810    0.57696    1.000
    N4626    N        0.75662    0.32240    0.57676    1.000
    N4627    N        0.77320    0.43726    0.57020    1.000
    N4628    N        0.76126    0.43383    0.50123    1.000
    N4629    N        0.75941    0.50036    0.58734    1.000
    Si4630   Si       0.75530    0.41324    0.53841    1.000
    Si4631   Si       0.78347    0.32543    0.69400    1.000
    N4632    N        0.79895    0.35193    0.66342    1.000
    N4633    N        0.80354    0.34355    0.72856    1.000
    Si4634   Si       0.78593    0.38390    0.63839    1.000
    N4635    N        0.77307    0.49270    0.65520    1.000
    N4636    N        0.75400    0.45131    0.70650    1.000
    Si4637   Si       0.76113    0.45145    0.66540    1.000
    N4638    N        0.79114    0.42059    0.66093    1.000
    Si4639   Si       0.76436    0.47504    0.73952    1.000
    Si4640   Si       0.80328    0.50621    0.68229    1.000
    N4641    N        0.78401    0.50738    0.72296    1.000
    N4642    N        0.76557    0.35544    0.84629    1.000
    Si4643   Si       0.77862    0.34847    0.76563    1.000
    N4644    N        0.79499    0.27602    0.83537    1.000
    Si4645   Si       0.80454    0.34206    0.83438    1.000
    N4646    N        0.80533    0.32585    0.79333    1.000
    Si4647   Si       0.75401    0.25814    0.83516    1.000
    N4648    N        0.79272    0.38809    0.77319    1.000
    N4649    N        0.78804    0.45637    0.77152    1.000
    Si4650   Si       0.77780    0.46895    0.83682    1.000
    Si4651   Si       0.76820    0.42108    0.78610    1.000
    Si4652   Si       0.76283    0.39655    0.86059    1.000
    N4653    N        0.76152    0.42804    0.82932    1.000
    N4654    N        0.80341    0.40603    0.87331    1.000
    N4655    N        0.80180    0.28039    0.97401    1.000
    N4656    N        0.80148    0.26969    0.90819    1.000
    N4657    N        0.77411    0.46083    0.99208    1.000
    N4658    N        0.80095    0.39802    0.99175    1.000
    N4659    N        0.77640    0.47513    0.87978    1.000
    Si4660   Si       0.80081    0.44297    0.89654    1.000
    Si4661   Si       0.80049    0.43438    0.97097    1.000
    N4662    N        0.78244    0.43191    0.93240    1.000
    Si4663   Si       0.78443    0.56696    0.09148    1.000
    N4664    N        0.77154    0.52518    0.10014    1.000
    N4665    N        0.80371    0.59568    0.11829    1.000
    N4666    N        0.75380    0.58461    0.06298    1.000
    Si4667   Si       0.81174    0.51020    0.07687    1.000
    N4668    N        0.77558    0.63534    0.00423    1.000
    N4669    N        0.78421    0.64401    0.07525    1.000
    Si4670   Si       0.80242    0.64074    0.03635    1.000
    N4671    N        0.76589    0.74712    0.07046    1.000
    Si4672   Si       0.76195    0.73377    0.02832    1.000
    N4673    N        0.80413    0.73005    0.01506    1.000
    Si4674   Si       0.80234    0.75607    0.09230    1.000
    Si4675   Si       0.80951    0.63882    0.11174    1.000
    Si4676   Si       0.76958    0.51219    0.14141    1.000
    N4677    N        0.76739    0.55951    0.23633    1.000
    N4678    N        0.79885    0.59749    0.19059    1.000
    Si4679   Si       0.79966    0.62117    0.22739    1.000
    Si4680   Si       0.76033    0.57390    0.19564    1.000
    N4681    N        0.76023    0.62757    0.24489    1.000
    Si4682   Si       0.81286    0.55796    0.24630    1.000
    N4683    N        0.80964    0.66125    0.21741    1.000
    Si4684   Si       0.79673    0.70147    0.23184    1.000
    N4685    N        0.78858    0.65528    0.14661    1.000
    Si4686   Si       0.77563    0.74071    0.16113    1.000
    N4687    N        0.78579    0.71199    0.19016    1.000
    N4688    N        0.80728    0.73882    0.13013    1.000
    Si4689   Si       0.80799    0.67705    0.17665    1.000
    N4690    N        0.78887    0.55198    0.35235    1.000
    Si4691   Si       0.79567    0.57649    0.31726    1.000
    N4692    N        0.80569    0.54712    0.28755    1.000
    N4693    N        0.76140    0.69780    0.25330    1.000
    N4694    N        0.79977    0.74261    0.30814    1.000
    N4695    N        0.78477    0.66322    0.30647    1.000
    Si4696   Si       0.78253    0.70509    0.32113    1.000
    N4697    N        0.78287    0.70971    0.36461    1.000
    Si4698   Si       0.75801    0.65791    0.27414    1.000
    Si4699   Si       0.81127    0.64284    0.33610    1.000
    N4700    N        0.78620    0.63268    0.37062    1.000
    N4701    N        0.81395    0.50628    0.39411    1.000
    N4702    N        0.79648    0.54072    0.45603    1.000
    N4703    N        0.78931    0.60969    0.44664    1.000
    Si4704   Si       0.76827    0.51483    0.47916    1.000
    Si4705   Si       0.75106    0.73254    0.38071    1.000
    Si4706   Si       0.80733    0.64887    0.44467    1.000
    N4707    N        0.81022    0.65994    0.48790    1.000
    Si4708   Si       0.79932    0.72105    0.43642    1.000
    N4709    N        0.78003    0.68165    0.43497    1.000
    N4710    N        0.77371    0.74887    0.41542    1.000
    N4711    N        0.79128    0.61081    0.59549    1.000
    N4712    N        0.79025    0.59727    0.52789    1.000
    N4713    N        0.80176    0.55280    0.57398    1.000
    Si4714   Si       0.77041    0.57138    0.59893    1.000
    N4715    N        0.76713    0.53045    0.52080    1.000
    Si4716   Si       0.78551    0.51624    0.55689    1.000
    Si4717   Si       0.75628    0.62585    0.57251    1.000
    Si4718   Si       0.75534    0.57222    0.52927    1.000
    Si4719   Si       0.78130    0.63713    0.50903    1.000
    Si4720   Si       0.78723    0.75164    0.50459    1.000
    N4721    N        0.79332    0.72172    0.53721    1.000
    N4722    N        0.76928    0.65799    0.54673    1.000
    Si4723   Si       0.75980    0.69876    0.55186    1.000
    Si4724   Si       0.75346    0.75536    0.59570    1.000
    N4725    N        0.78346    0.59788    0.72382    1.000
    Si4726   Si       0.77470    0.55236    0.71878    1.000
    Si4727   Si       0.77876    0.62981    0.69148    1.000
    N4728    N        0.80945    0.61335    0.66551    1.000
    N4729    N        0.80907    0.55093    0.68697    1.000
    Si4730   Si       0.80976    0.63306    0.62763    1.000
    N4731    N        0.75030    0.55542    0.63352    1.000
    N4732    N        0.78463    0.73869    0.73291    1.000
    N4733    N        0.79928    0.73237    0.66073    1.000
    Si4734   Si       0.80272    0.75576    0.69708    1.000
    Si4735   Si       0.80541    0.68999    0.66939    1.000
    Si4736   Si       0.77813    0.69663    0.73891    1.000
    N4737    N        0.78501    0.67297    0.70211    1.000
    N4738    N        0.78643    0.66834    0.63669    1.000
    Si4739   Si       0.79350    0.59965    0.82211    1.000
    Si4740   Si       0.77109    0.53538    0.79767    1.000
    N4741    N        0.76686    0.56541    0.83042    1.000
    N4742    N        0.77154    0.61967    0.79136    1.000
    N4743    N        0.79406    0.62112    0.85841    1.000
    N4744    N        0.81294    0.52256    0.78652    1.000
    N4745    N        0.76727    0.74924    0.80108    1.000
    N4746    N        0.78031    0.67830    0.82623    1.000
    Si4747   Si       0.77551    0.72099    0.83824    1.000
    N4748    N        0.80443    0.68000    0.76784    1.000
    Si4749   Si       0.76378    0.66150    0.78775    1.000
    Si4750   Si       0.78762    0.66315    0.87041    1.000
    Si4751   Si       0.79879    0.53398    0.95828    1.000
    N4752    N        0.79972    0.57630    0.96471    1.000
    N4753    N        0.78287    0.56848    0.89401    1.000
    Si4754   Si       0.76520    0.59905    0.97974    1.000
    Si4755   Si       0.79956    0.60745    0.90061    1.000
    N4756    N        0.76005    0.52020    0.94447    1.000
    N4757    N        0.80204    0.64776    0.91754    1.000
    Si4758   Si       0.75896    0.65191    0.92703    1.000
    N4759    N        0.78653    0.74414    0.94915    1.000
    N4760    N        0.78995    0.71068    0.88481    1.000
    Si4761   Si       0.76674    0.71737    0.92263    1.000
    N4762    N        0.75446    0.68480    0.95630    1.000
    N4763    N        0.79341    0.79996    0.09310    1.000
    Si4764   Si       0.77343    0.83124    0.01617    1.000
    N4765    N        0.80244    0.85787    0.03626    1.000
    N4766    N        0.75498    0.85944    0.10085    1.000
    Si4767   Si       0.79048    0.88368    0.08606    1.000
    N4768    N        0.80178    0.98754    0.10406    1.000
    N4769    N        0.79595    0.98667    0.03033    1.000
    Si4770   Si       0.77895    0.99678    0.06807    1.000
    Si4771   Si       0.78148    0.89207    0.01949    1.000
    N4772    N        0.77139    0.91051    0.05769    1.000
    N4773    N        0.80647    0.91938    0.99707    1.000
    N4774    N        0.76992    0.78112    0.17309    1.000
    Si4775   Si       0.78642    0.81173    0.20083    1.000
    N4776    N        0.81231    0.79289    0.23443    1.000
    Si4777   Si       0.77495    0.92020    0.15639    1.000
    N4778    N        0.79811    0.91409    0.12018    1.000
    N4779    N        0.79262    0.89594    0.19001    1.000
    N4780    N        0.78047    0.96026    0.17201    1.000
    N4781    N        0.79850    0.84986    0.27300    1.000
    N4782    N        0.77368    0.81083    0.31994    1.000
    Si4783   Si       0.76087    0.81043    0.36214    1.000
    Si4784   Si       0.76238    0.84698    0.29500    1.000
    Si4785   Si       0.76386    0.76840    0.31647    1.000
    N4786    N        0.79088    0.98847    0.33139    1.000
    Si4787   Si       0.76016    0.91803    0.32549    1.000
    N4788    N        0.79000    0.92670    0.25476    1.000
    N4789    N        0.80475    0.92214    0.32843    1.000
    N4790    N        0.79938    0.85987    0.45812    1.000
    Si4791   Si       0.79244    0.78877    0.42012    1.000
    N4792    N        0.78573    0.82296    0.39571    1.000
    N4793    N        0.77668    0.80035    0.45851    1.000
    Si4794   Si       0.80602    0.85621    0.41556    1.000
    Si4795   Si       0.79908    0.82336    0.49111    1.000
    N4796    N        0.75571    0.00671    0.39164    1.000
    N4797    N        0.81123    0.96773    0.39272    1.000
    Si4798   Si       0.80959    0.95200    0.43657    1.000
    N4799    N        0.79968    0.99261    0.44820    1.000
    N4800    N        0.79562    0.88829    0.38863    1.000
    N4801    N        0.77090    0.93206    0.43688    1.000
    Si4802   Si       0.79602    0.00573    0.40816    1.000
    Si4803   Si       0.76408    0.91538    0.39715    1.000
    Si4804   Si       0.78962    0.88757    0.49231    1.000
    N4805    N        0.78770    0.78964    0.52697    1.000
    Si4806   Si       0.78942    0.85764    0.56495    1.000
    N4807    N        0.79479    0.85606    0.52139    1.000
    N4808    N        0.79563    0.76837    0.59430    1.000
    Si4809   Si       0.81480    0.78948    0.56126    1.000
    N4810    N        0.78963    0.89531    0.58215    1.000
    Si4811   Si       0.78288    0.93797    0.57924    1.000
    N4812    N        0.78725    0.95894    0.54174    1.000
    Si4813   Si       0.76091    0.98966    0.52397    1.000
    N4814    N        0.81199    0.94532    0.61283    1.000
    N4815    N        0.77000    0.00869    0.61815    1.000
    N4816    N        0.78364    0.79430    0.68635    1.000
    Si4817   Si       0.76794    0.86672    0.66180    1.000
    N4818    N        0.76292    0.85855    0.70389    1.000
    N4819    N        0.80845    0.87581    0.64791    1.000
    Si4820   Si       0.75760    0.81603    0.71466    1.000
    Si4821   Si       0.80932    0.98741    0.62484    1.000
    N4822    N        0.78984    0.93558    0.70816    1.000
    Si4823   Si       0.80731    0.97588    0.70754    1.000
    N4824    N        0.77833    0.00100    0.73029    1.000
    N4825    N        0.81456    0.99094    0.66651    1.000
    Si4826   Si       0.81213    0.90761    0.73624    1.000
    Si4827   Si       0.78776    0.81377    0.84724    1.000
    N4828    N        0.77874    0.83083    0.81031    1.000
    N4829    N        0.76525    0.80022    0.75238    1.000
    N4830    N        0.76227    0.77925    0.86097    1.000
    Si4831   Si       0.78757    0.76574    0.76619    1.000
    Si4832   Si       0.80743    0.85691    0.78795    1.000
    N4833    N        0.78738    0.88420    0.76154    1.000
    N4834    N        0.79021    0.93837    0.84194    1.000
    N4835    N        0.77819    0.96845    0.78948    1.000
    Si4836   Si       0.78740    0.97079    0.87175    1.000
    Si4837   Si       0.75471    0.94467    0.81865    1.000
    Si4838   Si       0.77641    0.00904    0.77271    1.000
    N4839    N        0.78235    0.84117    0.88019    1.000
    Si4840   Si       0.76697    0.77781    0.96764    1.000
    N4841    N        0.79212    0.80852    0.98506    1.000
    N4842    N        0.77428    0.86959    0.93612    1.000
    Si4843   Si       0.78548    0.82800    0.92454    1.000
    N4844    N        0.76083    0.97731    0.97934    1.000
    N4845    N        0.76723    0.96425    0.90752    1.000
    Si4846   Si       0.78005    0.88160    0.89487    1.000
    Si4847   Si       0.78640    0.97987    0.94300    1.000
    Si4848   Si       0.83897    0.07448    0.02114    1.000
    Si4849   Si       0.86349    0.05452    0.08393    1.000
    N4850    N        0.82211    0.05143    0.10111    1.000
    N4851    N        0.81933    0.09493    0.05433    1.000
    N4852    N        0.81795    0.04334    0.00479    1.000
    N4853    N        0.86866    0.01378    0.09195    1.000
    Si4854   Si       0.82424    0.13620    0.06412    1.000
    Si4855   Si       0.82497    0.23366    0.04155    1.000
    Si4856   Si       0.83350    0.23251    0.11359    1.000
    N4857    N        0.86702    0.14649    0.06266    1.000
    N4858    N        0.86445    0.21491    0.04240    1.000
    N4859    N        0.80784    0.22142    0.07945    1.000
    Si4860   Si       0.83328    0.01089    0.12061    1.000
    Si4861   Si       0.84371    0.04260    0.19149    1.000
    N4862    N        0.86205    0.01954    0.22723    1.000
    N4863    N        0.82356    0.12848    0.21488    1.000
    Si4864   Si       0.84066    0.11201    0.17813    1.000
    N4865    N        0.82744    0.01682    0.16275    1.000
    N4866    N        0.86805    0.07591    0.17524    1.000
    Si4867   Si       0.81588    0.09496    0.24051    1.000
    Si4868   Si       0.84166    0.18210    0.17091    1.000
    N4869    N        0.86499    0.14462    0.16471    1.000
    N4870    N        0.85885    0.20546    0.20410    1.000
    N4871    N        0.85547    0.20430    0.13761    1.000
    Si4872   Si       0.85378    0.19033    0.24477    1.000
    N4873    N        0.85526    0.03015    0.29921    1.000
    Si4874   Si       0.85185    0.07125    0.32069    1.000
    N4875    N        0.85508    0.08256    0.25994    1.000
    N4876    N        0.86313    0.11446    0.31735    1.000
    Si4877   Si       0.81566    0.00684    0.29759    1.000
    Si4878   Si       0.85683    0.13685    0.35330    1.000
    N4879    N        0.86583    0.24149    0.33681    1.000
    Si4880   Si       0.82965    0.21611    0.34436    1.000
    Si4881   Si       0.85189    0.24562    0.29558    1.000
    N4882    N        0.84710    0.17987    0.35721    1.000
    N4883    N        0.81527    0.22396    0.30346    1.000
    N4884    N        0.83226    0.11040    0.38024    1.000
    Si4885   Si       0.82130    0.09243    0.47536    1.000
    N4886    N        0.85866    0.11254    0.47579    1.000
    N4887    N        0.82813    0.04968    0.46723    1.000
    Si4888   Si       0.85211    0.03829    0.43259    1.000
    N4889    N        0.82276    0.03712    0.39935    1.000
    Si4890   Si       0.81453    0.01351    0.48310    1.000
    N4891    N        0.83258    0.22821    0.46111    1.000
    N4892    N        0.84700    0.15987    0.42563    1.000
    Si4893   Si       0.81539    0.25301    0.42680    1.000
    Si4894   Si       0.85081    0.15293    0.46798    1.000
    N4895    N        0.81466    0.16033    0.49082    1.000
    Si4896   Si       0.81329    0.13660    0.41135    1.000
    N4897    N        0.85039    0.08556    0.60379    1.000
    N4898    N        0.84530    0.05955    0.54230    1.000
    Si4899   Si       0.82098    0.05365    0.60333    1.000
    N4900    N        0.83868    0.01261    0.60512    1.000
    Si4901   Si       0.83727    0.18408    0.55940    1.000
    N4902    N        0.83981    0.20518    0.59931    1.000
    N4903    N        0.81965    0.21426    0.53104    1.000
    N4904    N        0.84641    0.05165    0.70306    1.000
    Si4905   Si       0.84721    0.11898    0.63112    1.000
    N4906    N        0.84823    0.11137    0.67335    1.000
    Si4907   Si       0.82072    0.07811    0.67851    1.000
    Si4908   Si       0.84937    0.01223    0.68514    1.000
    Si4909   Si       0.82901    0.18617    0.70363    1.000
    N4910    N        0.84241    0.15596    0.73382    1.000
    N4911    N        0.86236    0.17454    0.67770    1.000
    N4912    N        0.83267    0.22836    0.71157    1.000
    Si4913   Si       0.84239    0.03213    0.79619    1.000
    N4914    N        0.84254    0.03966    0.83678    1.000
    Si4915   Si       0.85992    0.11973    0.83315    1.000
    N4916    N        0.81720    0.11399    0.83988    1.000
    Si4917   Si       0.81305    0.02746    0.86561    1.000
    Si4918   Si       0.83114    0.14853    0.77431    1.000
    Si4919   Si       0.86073    0.18804    0.80598    1.000
    N4920    N        0.81720    0.17713    0.80263    1.000
    Si4921   Si       0.84054    0.24286    0.75222    1.000
    N4922    N        0.85240    0.25944    0.86731    1.000
    N4923    N        0.84815    0.06456    0.93893    1.000
    N4924    N        0.81598    0.12695    0.90552    1.000
    N4925    N        0.84726    0.10548    0.99138    1.000
    N4926    N        0.84770    0.18934    0.90400    1.000
    Si4927   Si       0.84272    0.21675    0.87130    1.000
    Si4928   Si       0.82833    0.20167    0.94137    1.000
    N4929    N        0.81956    0.16221    0.95804    1.000
    N4930    N        0.85157    0.23820    0.94921    1.000
    Si4931   Si       0.85310    0.14677    0.90156    1.000
    Si4932   Si       0.83651    0.14627    0.99408    1.000
    Si4933   Si       0.84549    0.29894    0.07470    1.000
    N4934    N        0.83253    0.27855    0.03949    1.000
    N4935    N        0.86357    0.33609    0.06379    1.000
    Si4936   Si       0.86159    0.37448    0.08308    1.000
    N4937    N        0.86298    0.26152    0.09800    1.000
    N4938    N        0.83158    0.47755    0.09617    1.000
    N4939    N        0.83645    0.45967    0.02876    1.000
    Si4940   Si       0.84621    0.44691    0.07026    1.000
    N4941    N        0.83136    0.40987    0.08701    1.000
    Si4942   Si       0.86491    0.46272    0.99777    1.000
    N4943    N        0.81525    0.28377    0.21919    1.000
    Si4944   Si       0.81524    0.30000    0.13819    1.000
    Si4945   Si       0.83708    0.36530    0.22459    1.000
    N4946    N        0.85625    0.31025    0.14625    1.000
    N4947    N        0.85510    0.37562    0.18620    1.000
    Si4948   Si       0.84990    0.29363    0.24231    1.000
    N4949    N        0.81071    0.25685    0.14005    1.000
    N4950    N        0.86090    0.33531    0.24090    1.000
    Si4951   Si       0.84368    0.39647    0.15007    1.000
    N4952    N        0.85047    0.43815    0.15126    1.000
    Si4953   Si       0.82015    0.46515    0.13489    1.000
    N4954    N        0.85724    0.44795    0.22891    1.000
    N4955    N        0.82843    0.33240    0.33662    1.000
    N4956    N        0.84304    0.28641    0.28449    1.000
    Si4957   Si       0.86871    0.34087    0.34272    1.000
    N4958    N        0.83704    0.39245    0.25822    1.000
    N4959    N        0.84456    0.48820    0.28658    1.000
    N4960    N        0.84700    0.45890    0.35157    1.000
    Si4961   Si       0.85735    0.49041    0.24421    1.000
    N4962    N        0.84446    0.25934    0.39664    1.000
    Si4963   Si       0.84538    0.37750    0.41044    1.000
    N4964    N        0.83188    0.35971    0.45339    1.000
    N4965    N        0.86552    0.32229    0.49360    1.000
    Si4966   Si       0.87078    0.36176    0.47407    1.000
    N4967    N        0.86993    0.36478    0.37884    1.000
    N4968    N        0.84964    0.42091    0.41190    1.000
    Si4969   Si       0.86749    0.44063    0.44695    1.000
    N4970    N        0.85964    0.47967    0.42629    1.000
    N4971    N        0.83950    0.43282    0.47940    1.000
    Si4972   Si       0.83573    0.46196    0.39368    1.000
    N4973    N        0.84237    0.27779    0.54510    1.000
    Si4974   Si       0.83738    0.31575    0.52578    1.000
    N4975    N        0.83710    0.34434    0.55877    1.000
    Si4976   Si       0.86314    0.34338    0.59054    1.000
    Si4977   Si       0.81059    0.37828    0.56269    1.000
    N4978    N        0.81262    0.38845    0.60502    1.000
    N4979    N        0.82976    0.41308    0.54594    1.000
    N4980    N        0.84591    0.44994    0.60035    1.000
    Si4981   Si       0.85705    0.49793    0.54240    1.000
    Si4982   Si       0.85883    0.42532    0.51636    1.000
    Si4983   Si       0.85082    0.40752    0.61367    1.000
    Si4984   Si       0.81680    0.44768    0.56774    1.000
    N4985    N        0.81584    0.48663    0.54668    1.000
    N4986    N        0.85437    0.32636    0.62887    1.000
    Si4987   Si       0.83774    0.32925    0.66623    1.000
    Si4988   Si       0.84719    0.32191    0.72911    1.000
    N4989    N        0.81529    0.29732    0.68693    1.000
    N4990    N        0.83653    0.41451    0.72254    1.000
    N4991    N        0.85590    0.40914    0.65723    1.000
    N4992    N        0.83471    0.47457    0.68307    1.000
    Si4993   Si       0.82753    0.43006    0.68243    1.000
    Si4994   Si       0.87007    0.43675    0.73908    1.000
    N4995    N        0.83871    0.36860    0.82733    1.000
    N4996    N        0.85475    0.29686    0.81355    1.000
    N4997    N        0.85898    0.35338    0.75803    1.000
    Si4998   Si       0.85723    0.33928    0.80095    1.000
    Si4999   Si       0.81717    0.28211    0.79740    1.000
    N5000    N        0.84873    0.28503    0.74774    1.000
    Si5001   Si       0.82549    0.37893    0.74730    1.000
    Si5002   Si       0.84443    0.39620    0.86068    1.000
    N5003    N        0.85396    0.47047    0.76290    1.000
    Si5004   Si       0.85582    0.46476    0.85313    1.000
    N5005    N        0.82102    0.47003    0.82820    1.000
    Si5006   Si       0.82002    0.47974    0.78615    1.000
    Si5007   Si       0.81587    0.28469    0.87181    1.000
    N5008    N        0.81576    0.32689    0.87436    1.000
    N5009    N        0.85885    0.37352    0.89656    1.000
    N5010    N        0.85843    0.30681    0.92194    1.000
    Si5011   Si       0.82809    0.27673    0.94143    1.000
    Si5012   Si       0.82340    0.36064    0.98679    1.000
    Si5013   Si       0.83331    0.34219    0.91137    1.000
    N5014    N        0.86613    0.36613    0.99579    1.000
    N5015    N        0.81109    0.34821    0.94730    1.000
    N5016    N        0.84066    0.46105    0.89472    1.000
    N5017    N        0.83894    0.45572    0.96280    1.000
    Si5018   Si       0.85107    0.48354    0.93004    1.000
    Si5019   Si       0.84902    0.57718    0.05711    1.000
    N5020    N        0.83556    0.61078    0.03428    1.000
    N5021    N        0.81805    0.55156    0.06952    1.000
    Si5022   Si       0.86120    0.53555    0.99973    1.000
    N5023    N        0.86876    0.59020    0.09207    1.000
    N5024    N        0.83978    0.74577    0.07171    1.000
    Si5025   Si       0.83976    0.71811    0.03727    1.000
    N5026    N        0.83452    0.67382    0.03592    1.000
    Si5027   Si       0.85923    0.64355    0.01553    1.000
    N5028    N        0.84977    0.65513    0.11307    1.000
    Si5029   Si       0.83543    0.52006    0.18334    1.000
    N5030    N        0.85862    0.61490    0.16443    1.000
    N5031    N        0.84813    0.55588    0.16089    1.000
    Si5032   Si       0.82348    0.59363    0.15725    1.000
    N5033    N        0.83284    0.52387    0.22784    1.000
    N5034    N        0.84632    0.69137    0.16630    1.000
    Si5035   Si       0.84667    0.73495    0.15345    1.000
    N5036    N        0.83234    0.72226    0.24109    1.000
    Si5037   Si       0.87051    0.65706    0.15193    1.000
    N5038    N        0.82614    0.60575    0.32337    1.000
    N5039    N        0.85850    0.55115    0.35061    1.000
    Si5040   Si       0.86736    0.62020    0.26293    1.000
    Si5041   Si       0.86707    0.59238    0.33331    1.000
    N5042    N        0.83063    0.59850    0.24917    1.000
    N5043    N        0.83603    0.67701    0.34177    1.000
    N5044    N        0.84543    0.74268    0.35656    1.000
    Si5045   Si       0.84350    0.75001    0.31443    1.000
    N5046    N        0.86051    0.66138    0.27260    1.000
    N5047    N        0.87085    0.72107    0.29686    1.000
    Si5048   Si       0.86908    0.70168    0.25543    1.000
    Si5049   Si       0.86790    0.68014    0.31273    1.000
    Si5050   Si       0.82674    0.70756    0.37091    1.000
    N5051    N        0.86044    0.53269    0.45311    1.000
    N5052    N        0.83526    0.57597    0.40654    1.000
    N5053    N        0.85246    0.59071    0.47895    1.000
    Si5054   Si       0.82410    0.54411    0.37863    1.000
    Si5055   Si       0.86531    0.60856    0.40707    1.000
    Si5056   Si       0.81995    0.57801    0.44862    1.000
    Si5057   Si       0.82528    0.50723    0.44280    1.000
    N5058    N        0.83542    0.70854    0.41222    1.000
    N5059    N        0.84545    0.64500    0.42686    1.000
    N5060    N        0.81757    0.73395    0.47541    1.000
    Si5061   Si       0.86816    0.68086    0.42645    1.000
    Si5062   Si       0.83394    0.69466    0.49197    1.000
    N5063    N        0.87438    0.69285    0.46775    1.000
    N5064    N        0.85977    0.59558    0.56832    1.000
    N5065    N        0.86401    0.53698    0.52469    1.000
    Si5066   Si       0.81619    0.59294    0.56284    1.000
    N5067    N        0.86486    0.51975    0.58190    1.000
    N5068    N        0.85387    0.69171    0.53009    1.000
    N5069    N        0.83623    0.71359    0.59984    1.000
    Si5070   Si       0.83373    0.72198    0.55649    1.000
    Si5071   Si       0.82760    0.59054    0.70261    1.000
    N5072    N        0.84517    0.56803    0.73917    1.000
    N5073    N        0.84229    0.63249    0.72038    1.000
    N5074    N        0.84950    0.64481    0.61592    1.000
    N5075    N        0.87027    0.68703    0.72941    1.000
    Si5076   Si       0.86617    0.73531    0.67690    1.000
    Si5077   Si       0.81914    0.74483    0.62531    1.000
    N5078    N        0.84888    0.69259    0.66637    1.000
    Si5079   Si       0.86608    0.66037    0.69511    1.000
    N5080    N        0.84432    0.75353    0.70902    1.000
    Si5081   Si       0.85938    0.68614    0.62493    1.000
    Si5082   Si       0.84152    0.55456    0.78012    1.000
    N5083    N        0.83388    0.58989    0.80493    1.000
    N5084    N        0.84120    0.54171    0.85779    1.000
    Si5085   Si       0.86827    0.61678    0.81086    1.000
    N5086    N        0.83303    0.67285    0.85792    1.000
    N5087    N        0.85628    0.65733    0.79468    1.000
    Si5088   Si       0.84164    0.66129    0.75323    1.000
    Si5089   Si       0.82336    0.68107    0.81475    1.000
    N5090    N        0.82064    0.72834    0.83021    1.000
    Si5091   Si       0.83962    0.59202    0.95637    1.000
    N5092    N        0.83997    0.59025    0.91271    1.000
    N5093    N        0.82896    0.52126    0.92766    1.000
    Si5094   Si       0.82561    0.55117    0.89667    1.000
    N5095    N        0.81890    0.52026    0.99459    1.000
    Si5096   Si       0.87082    0.65502    0.87170    1.000
    N5097    N        0.84777    0.63220    0.97252    1.000
    N5098    N        0.86312    0.72835    0.89233    1.000
    N5099    N        0.84014    0.69895    0.95778    1.000
    Si5100   Si       0.83101    0.71506    0.87047    1.000
    Si5101   Si       0.83620    0.65839    0.94252    1.000
    Si5102   Si       0.82002    0.73550    0.97265    1.000
    N5103    N        0.87033    0.66494    0.91419    1.000
    N5104    N        0.85439    0.81549    0.05359    1.000
    Si5105   Si       0.84517    0.85386    0.03228    1.000
    Si5106   Si       0.83050    0.82080    0.09154    1.000
    N5107    N        0.82982    0.86215    0.09896    1.000
    Si5108   Si       0.86654    0.87589    0.11972    1.000
    Si5109   Si       0.87091    0.76757    0.09623    1.000
    N5110    N        0.83537    0.94209    0.06539    1.000
    Si5111   Si       0.82110    0.95044    0.02617    1.000
    Si5112   Si       0.82129    0.94652    0.10626    1.000
    N5113    N        0.85809    0.95241    0.00232    1.000
    N5114    N        0.87270    0.88627    0.04122    1.000
    N5115    N        0.85192    0.79836    0.12256    1.000
    Si5116   Si       0.85164    0.80438    0.16612    1.000
    Si5117   Si       0.82952    0.87102    0.18723    1.000
    N5118    N        0.81985    0.83179    0.18036    1.000
    N5119    N        0.84559    0.76379    0.18423    1.000
    Si5120   Si       0.84220    0.76262    0.22616    1.000
    N5121    N        0.85992    0.88465    0.16085    1.000
    Si5122   Si       0.85836    0.97829    0.24268    1.000
    Si5123   Si       0.82082    0.97441    0.17285    1.000
    N5124    N        0.83470    0.95708    0.21075    1.000
    N5125    N        0.84816    0.89096    0.21969    1.000
    Si5126   Si       0.81335    0.92107    0.21986    1.000
    N5127    N        0.84647    0.96006    0.13983    1.000
    Si5128   Si       0.82427    0.81644    0.26985    1.000
    N5129    N        0.84232    0.85507    0.34304    1.000
    N5130    N        0.84601    0.79138    0.30267    1.000
    N5131    N        0.86375    0.83546    0.25911    1.000
    Si5132   Si       0.86421    0.81839    0.33162    1.000
    Si5133   Si       0.86491    0.87766    0.25781    1.000
    N5134    N        0.87101    0.80025    0.37164    1.000
    Si5135   Si       0.81943    0.93038    0.28792    1.000
    N5136    N        0.85615    0.90914    0.28660    1.000
    N5137    N        0.85606    0.97507    0.33962    1.000
    N5138    N        0.83022    0.97134    0.27763    1.000
    Si5139   Si       0.82482    0.89250    0.35439    1.000
    Si5140   Si       0.81814    0.95850    0.35151    1.000
    N5141    N        0.85897    0.91558    0.37097    1.000
    N5142    N        0.87209    0.87046    0.48361    1.000
    N5143    N        0.83351    0.77579    0.42519    1.000
    Si5144   Si       0.86016    0.76344    0.39206    1.000
    N5145    N        0.83970    0.80962    0.48170    1.000
    N5146    N        0.84984    0.85184    0.41892    1.000
    Si5147   Si       0.86250    0.83845    0.45720    1.000
    Si5148   Si       0.84518    0.76744    0.46786    1.000
    N5149    N        0.84765    0.93092    0.43918    1.000
    Si5150   Si       0.86075    0.91067    0.47594    1.000
    N5151    N        0.82174    0.91787    0.49896    1.000
    Si5152   Si       0.85982    0.84130    0.58121    1.000
    N5153    N        0.81913    0.82930    0.57620    1.000
    N5154    N        0.84645    0.76381    0.54687    1.000
    N5155    N        0.85470    0.88388    0.59469    1.000
    Si5156   Si       0.82763    0.95396    0.52265    1.000
    N5157    N        0.85636    0.94560    0.55176    1.000
    N5158    N        0.84321    0.98755    0.50107    1.000
    Si5159   Si       0.81975    0.90142    0.61379    1.000
    N5160    N        0.85894    0.83145    0.68246    1.000
    N5161    N        0.85441    0.76409    0.64515    1.000
    Si5162   Si       0.84344    0.87033    0.67399    1.000
    N5163    N        0.83523    0.87962    0.71421    1.000
    Si5164   Si       0.86445    0.84581    0.72581    1.000
    N5165    N        0.84878    0.98270    0.71726    1.000
    N5166    N        0.82912    0.79859    0.85174    1.000
    N5167    N        0.84708    0.84717    0.76828    1.000
    N5168    N        0.82896    0.77262    0.77598    1.000
    Si5169   Si       0.83998    0.76883    0.81947    1.000
    N5170    N        0.83061    0.87381    0.82281    1.000
    Si5171   Si       0.86873    0.86431    0.80309    1.000
    Si5172   Si       0.86030    0.77224    0.74642    1.000
    N5173    N        0.84259    0.99035    0.79142    1.000
    Si5174   Si       0.82240    0.90831    0.84529    1.000
    N5175    N        0.85168    0.93682    0.82699    1.000
    N5176    N        0.83040    0.93324    0.76663    1.000
    Si5177   Si       0.81993    0.95525    0.80418    1.000
    Si5178   Si       0.85782    0.96834    0.75715    1.000
    N5179    N        0.82693    0.81536    0.92566    1.000
    Si5180   Si       0.83503    0.80993    0.96940    1.000
    Si5181   Si       0.84965    0.81670    0.88788    1.000
    N5182    N        0.84772    0.76825    0.97535    1.000
    N5183    N        0.85718    0.84201    0.98983    1.000
    N5184    N        0.86437    0.85788    0.88575    1.000
    N5185    N        0.82608    0.95983    0.94483    1.000
    N5186    N        0.85860    0.89627    0.94781    1.000
    N5187    N        0.81849    0.90270    0.88763    1.000
    N5188    N        0.82861    0.99015    0.88565    1.000
    Si5189   Si       0.85813    0.89709    0.90477    1.000
    Si5190   Si       0.84020    0.92763    0.97055    1.000
    Si5191   Si       0.85581    0.97342    0.91500    1.000
    Si5192   Si       0.89717    0.11933    0.08469    1.000
    Si5193   Si       0.91131    0.03813    0.03166    1.000
    N5194    N        0.88414    0.08600    0.10750    1.000
    N5195    N        0.92693    0.10738    0.05733    1.000
    N5196    N        0.87381    0.05903    0.04081    1.000
    N5197    N        0.91516    0.15054    0.10736    1.000
    N5198    N        0.91298    0.21535    0.09718    1.000
    Si5199   Si       0.88921    0.23899    0.07125    1.000
    Si5200   Si       0.88392    0.17714    0.03596    1.000
    N5201    N        0.92800    0.17413    0.04066    1.000
    N5202    N        0.92778    0.11025    0.16159    1.000
    Si5203   Si       0.90216    0.07610    0.14737    1.000
    N5204    N        0.92451    0.18742    0.16236    1.000
    N5205    N        0.89666    0.24954    0.16300    1.000
    Si5206   Si       0.89932    0.21396    0.13783    1.000
    Si5207   Si       0.90830    0.14808    0.15088    1.000
    N5208    N        0.92427    0.22138    0.22235    1.000
    Si5209   Si       0.88664    0.23820    0.20557    1.000
    N5210    N        0.91475    0.03911    0.27195    1.000
    N5211    N        0.91765    0.11012    0.26933    1.000
    N5212    N        0.87665    0.05243    0.35166    1.000
    Si5213   Si       0.87417    0.11647    0.27556    1.000
    Si5214   Si       0.87749    0.01260    0.33265    1.000
    Si5215   Si       0.87381    0.04282    0.26082    1.000
    Si5216   Si       0.91787    0.22220    0.26374    1.000
    Si5217   Si       0.92267    0.15097    0.25584    1.000
    N5218    N        0.87574    0.15517    0.25527    1.000
    N5219    N        0.87366    0.22085    0.26808    1.000
    N5220    N        0.88233    0.06809    0.42328    1.000
    Si5221   Si       0.89204    0.09381    0.45702    1.000
    Si5222   Si       0.90240    0.05916    0.38561    1.000
    N5223    N        0.91953    0.12264    0.43690    1.000
    N5224    N        0.92419    0.02141    0.38913    1.000
    N5225    N        0.91391    0.07427    0.48745    1.000
    Si5226   Si       0.92902    0.12722    0.39490    1.000
    Si5227   Si       0.87424    0.17683    0.39709    1.000
    N5228    N        0.89736    0.20751    0.41514    1.000
    N5229    N        0.89411    0.14320    0.37615    1.000
    N5230    N        0.89644    0.25235    0.47251    1.000
    Si5231   Si       0.87822    0.21785    0.45408    1.000
    N5232    N        0.88088    0.18168    0.47787    1.000
    Si5233   Si       0.92931    0.22681    0.39122    1.000
    N5234    N        0.90228    0.10454    0.55724    1.000
    N5235    N        0.89728    0.03983    0.58556    1.000
    Si5236   Si       0.87528    0.07490    0.56895    1.000
    Si5237   Si       0.92414    0.09862    0.52162    1.000
    Si5238   Si       0.88145    0.01137    0.61446    1.000
    Si5239   Si       0.87972    0.22332    0.61219    1.000
    Si5240   Si       0.89686    0.14602    0.57637    1.000
    N5241    N        0.89779    0.23427    0.57496    1.000
    Si5242   Si       0.90436    0.17330    0.51323    1.000
    N5243    N        0.87666    0.16757    0.54670    1.000
    N5244    N        0.87798    0.14539    0.61538    1.000
    N5245    N        0.92673    0.13703    0.50196    1.000
    N5246    N        0.92859    0.20894    0.52175    1.000
    Si5247   Si       0.92901    0.24629    0.50112    1.000
    N5248    N        0.91239    0.04867    0.71044    1.000
    Si5249   Si       0.91622    0.03958    0.66805    1.000
    N5250    N        0.88618    0.10840    0.73329    1.000
    N5251    N        0.88179    0.01520    0.65820    1.000
    Si5252   Si       0.87838    0.06534    0.72936    1.000
    N5253    N        0.91303    0.07585    0.64787    1.000
    N5254    N        0.91170    0.20236    0.63395    1.000
    N5255    N        0.91846    0.14208    0.67731    1.000
    N5256    N        0.91462    0.16633    0.74424    1.000
    Si5257   Si       0.89357    0.16602    0.64924    1.000
    Si5258   Si       0.86924    0.13575    0.70436    1.000
    N5259    N        0.91059    0.02619    0.82314    1.000
    Si5260   Si       0.90689    0.05910    0.79406    1.000
    N5261    N        0.88567    0.08566    0.82451    1.000
    Si5262   Si       0.88184    0.05033    0.84801    1.000
    N5263    N        0.87786    0.13208    0.86960    1.000
    N5264    N        0.87221    0.05027    0.76981    1.000
    Si5265   Si       0.90386    0.13223    0.76774    1.000
    Si5266   Si       0.91445    0.21882    0.83836    1.000
    Si5267   Si       0.91032    0.20452    0.76661    1.000
    N5268    N        0.91396    0.25813    0.82137    1.000
    N5269    N        0.87207    0.20533    0.84211    1.000
    N5270    N        0.86909    0.21682    0.77234    1.000
    N5271    N        0.92587    0.19354    0.80607    1.000
    N5272    N        0.86934    0.14549    0.79727    1.000
    N5273    N        0.90755    0.06688    0.95399    1.000
    Si5274   Si       0.88389    0.04251    0.92492    1.000
    Si5275   Si       0.90026    0.10521    0.89720    1.000
    N5276    N        0.89043    0.06384    0.88923    1.000
    N5277    N        0.88207    0.12919    0.93256    1.000
    Si5278   Si       0.87359    0.09489    0.96086    1.000
    Si5279   Si       0.89944    0.16172    0.96250    1.000
    N5280    N        0.91068    0.19980    0.94853    1.000
    Si5281   Si       0.89415    0.23861    0.94524    1.000
    N5282    N        0.87532    0.16642    0.99521    1.000
    Si5283   Si       0.89205    0.35394    0.02969    1.000
    N5284    N        0.91922    0.29729    0.11141    1.000
    N5285    N        0.92275    0.32144    0.03242    1.000
    Si5286   Si       0.92154    0.28170    0.01339    1.000
    N5287    N        0.91679    0.26380    0.05095    1.000
    N5288    N        0.92839    0.37842    0.00060    1.000
    N5289    N        0.89605    0.38683    0.05797    1.000
    Si5290   Si       0.91369    0.42583    0.04366    1.000
    N5291    N        0.89047    0.45206    0.07146    1.000
    Si5292   Si       0.91999    0.47856    0.08613    1.000
    N5293    N        0.89450    0.43274    0.00521    1.000
    N5294    N        0.88754    0.27517    0.22847    1.000
    Si5295   Si       0.88586    0.28012    0.13260    1.000
    N5296    N        0.91734    0.33983    0.16512    1.000
    Si5297   Si       0.87670    0.34661    0.16027    1.000
    N5298    N        0.87252    0.37427    0.12534    1.000
    N5299    N        0.91363    0.44081    0.18794    1.000
    N5300    N        0.90333    0.39325    0.24200    1.000
    N5301    N        0.89933    0.50017    0.24033    1.000
    Si5302   Si       0.87224    0.45045    0.18743    1.000
    N5303    N        0.86950    0.49428    0.18523    1.000
    N5304    N        0.88927    0.30313    0.34820    1.000
    N5305    N        0.88394    0.36383    0.30797    1.000
    Si5306   Si       0.89389    0.35557    0.26480    1.000
    N5307    N        0.92687    0.32928    0.26977    1.000
    Si5308   Si       0.92458    0.29007    0.24829    1.000
    Si5309   Si       0.87759    0.26764    0.37097    1.000
    Si5310   Si       0.90813    0.39960    0.31618    1.000
    N5311    N        0.90332    0.49571    0.32870    1.000
    N5312    N        0.88416    0.43081    0.29788    1.000
    N5313    N        0.91819    0.40494    0.35689    1.000
    Si5314   Si       0.87037    0.46882    0.31675    1.000
    Si5315   Si       0.87094    0.41853    0.25779    1.000
    Si5316   Si       0.89769    0.29517    0.48772    1.000
    Si5317   Si       0.91155    0.37623    0.39117    1.000
    N5318    N        0.89009    0.37433    0.43526    1.000
    N5319    N        0.92003    0.26901    0.38894    1.000
    N5320    N        0.93032    0.31698    0.46843    1.000
    Si5321   Si       0.92332    0.39959    0.44960    1.000
    N5322    N        0.90686    0.44000    0.45938    1.000
    Si5323   Si       0.89136    0.51057    0.42909    1.000
    N5324    N        0.92203    0.50444    0.45823    1.000
    N5325    N        0.89213    0.30775    0.58273    1.000
    N5326    N        0.91338    0.28114    0.52774    1.000
    Si5327   Si       0.88178    0.26987    0.56012    1.000
    N5328    N        0.88155    0.38130    0.59798    1.000
    Si5329   Si       0.92097    0.38522    0.52207    1.000
    N5330    N        0.88051    0.38921    0.50499    1.000
    N5331    N        0.91197    0.47378    0.58906    1.000
    Si5332   Si       0.91648    0.45450    0.54803    1.000
    N5333    N        0.87754    0.46261    0.53245    1.000
    Si5334   Si       0.92078    0.39968    0.59711    1.000
    Si5335   Si       0.87322    0.48356    0.60635    1.000
    N5336    N        0.92426    0.41360    0.55536    1.000
    Si5337   Si       0.88994    0.30090    0.62786    1.000
    Si5338   Si       0.91181    0.34242    0.68542    1.000
    N5339    N        0.92298    0.31924    0.64732    1.000
    N5340    N        0.87491    0.26126    0.63253    1.000
    N5341    N        0.87025    0.33254    0.69334    1.000
    N5342    N        0.91719    0.38452    0.69484    1.000
    Si5343   Si       0.92658    0.46815    0.63114    1.000
    Si5344   Si       0.87719    0.48553    0.68770    1.000
    Si5345   Si       0.89678    0.41525    0.67081    1.000
    N5346    N        0.89098    0.44688    0.70007    1.000
    N5347    N        0.92148    0.42492    0.63403    1.000
    N5348    N        0.89323    0.49268    0.64668    1.000
    Si5349   Si       0.88120    0.27826    0.84259    1.000
    N5350    N        0.90019    0.34897    0.80596    1.000
    Si5351   Si       0.89907    0.37022    0.76776    1.000
    Si5352   Si       0.91858    0.34319    0.84535    1.000
    N5353    N        0.90043    0.30977    0.86527    1.000
    N5354    N        0.88909    0.49467    0.85193    1.000
    N5355    N        0.89567    0.41333    0.76647    1.000
    Si5356   Si       0.91563    0.42131    0.85123    1.000
    Si5357   Si       0.88683    0.49990    0.76115    1.000
    N5358    N        0.92426    0.48368    0.77247    1.000
    N5359    N        0.87216    0.42628    0.84666    1.000
    N5360    N        0.91836    0.37851    0.86968    1.000
    N5361    N        0.92260    0.33715    0.92353    1.000
    Si5362   Si       0.89922    0.30203    0.90847    1.000
    Si5363   Si       0.90045    0.37383    0.90899    1.000
    N5364    N        0.91214    0.26811    0.97445    1.000
    N5365    N        0.90830    0.26097    0.91080    1.000
    Si5366   Si       0.89490    0.39666    0.97975    1.000
    N5367    N        0.88399    0.49994    0.98988    1.000
    N5368    N        0.89352    0.49145    0.92263    1.000
    Si5369   Si       0.91883    0.49144    0.88482    1.000
    Si5370   Si       0.91483    0.49967    0.95965    1.000
    N5371    N        0.90613    0.40476    0.93894    1.000
    N5372    N        0.92615    0.44844    0.88362    1.000
    Si5373   Si       0.90844    0.59807    0.10398    1.000
    Si5374   Si       0.91168    0.53688    0.06015    1.000
    N5375    N        0.90312    0.51657    0.09979    1.000
    N5376    N        0.87699    0.54982    0.03677    1.000
    N5377    N        0.92214    0.63956    0.10281    1.000
    N5378    N        0.87829    0.72143    0.01862    1.000
    Si5379   Si       0.91609    0.70010    0.02520    1.000
    N5380    N        0.90063    0.65784    0.01804    1.000
    N5381    N        0.90204    0.62394    0.23358    1.000
    N5382    N        0.91286    0.57335    0.14008    1.000
    N5383    N        0.90150    0.56084    0.20444    1.000
    Si5384   Si       0.90251    0.51829    0.20004    1.000
    Si5385   Si       0.88145    0.57979    0.16947    1.000
    Si5386   Si       0.92552    0.58772    0.22616    1.000
    N5387    N        0.92724    0.50727    0.16601    1.000
    Si5388   Si       0.91568    0.74077    0.22271    1.000
    N5389    N        0.92513    0.75224    0.18085    1.000
    N5390    N        0.88128    0.73882    0.12820    1.000
    Si5391   Si       0.91872    0.66038    0.21414    1.000
    N5392    N        0.90347    0.69991    0.22862    1.000
    Si5393   Si       0.92343    0.73498    0.14050    1.000
    N5394    N        0.90973    0.65956    0.17017    1.000
    N5395    N        0.88515    0.59745    0.29499    1.000
    Si5396   Si       0.89934    0.53411    0.35175    1.000
    N5397    N        0.92293    0.56373    0.33312    1.000
    N5398    N        0.88176    0.61666    0.36848    1.000
    Si5399   Si       0.92758    0.58755    0.29852    1.000
    N5400    N        0.90292    0.66528    0.33027    1.000
    Si5401   Si       0.91725    0.64667    0.37162    1.000
    N5402    N        0.89977    0.60387    0.43320    1.000
    Si5403   Si       0.89370    0.60885    0.47735    1.000
    N5404    N        0.91165    0.52169    0.39262    1.000
    N5405    N        0.91447    0.57010    0.49199    1.000
    Si5406   Si       0.87363    0.55348    0.48748    1.000
    N5407    N        0.89673    0.75058    0.41248    1.000
    Si5408   Si       0.90356    0.71945    0.48618    1.000
    N5409    N        0.90593    0.67993    0.40316    1.000
    Si5410   Si       0.92473    0.71881    0.41005    1.000
    Si5411   Si       0.88101    0.62247    0.59363    1.000
    N5412    N        0.92272    0.56550    0.55968    1.000
    Si5413   Si       0.87973    0.55581    0.56067    1.000
    N5414    N        0.90781    0.60016    0.62135    1.000
    Si5415   Si       0.89358    0.67089    0.53049    1.000
    N5416    N        0.90254    0.65445    0.57086    1.000
    N5417    N        0.91897    0.70589    0.52360    1.000
    N5418    N        0.90959    0.64000    0.50142    1.000
    Si5419   Si       0.92673    0.67925    0.59407    1.000
    Si5420   Si       0.90438    0.60156    0.66443    1.000
    Si5421   Si       0.88163    0.55599    0.71722    1.000
    N5422    N        0.88421    0.51323    0.71999    1.000
    N5423    N        0.87147    0.58223    0.68480    1.000
    N5424    N        0.91675    0.56534    0.74150    1.000
    N5425    N        0.90109    0.69342    0.62966    1.000
    Si5426   Si       0.92856    0.67599    0.65688    1.000
    N5427    N        0.90678    0.73472    0.69287    1.000
    Si5428   Si       0.90295    0.71388    0.73204    1.000
    N5429    N        0.90153    0.64537    0.67525    1.000
    Si5430   Si       0.91494    0.56263    0.78529    1.000
    N5431    N        0.91301    0.55809    0.84480    1.000
    N5432    N        0.90647    0.60356    0.79497    1.000
    Si5433   Si       0.87713    0.53408    0.83778    1.000
    N5434    N        0.87888    0.53585    0.79080    1.000
    N5435    N        0.87691    0.61666    0.85293    1.000
    Si5436   Si       0.91176    0.59407    0.86778    1.000
    N5437    N        0.89006    0.74113    0.76355    1.000
    N5438    N        0.90148    0.67934    0.85534    1.000
    Si5439   Si       0.91072    0.75597    0.79954    1.000
    Si5440   Si       0.90822    0.57435    0.95063    1.000
    N5441    N        0.91195    0.58920    0.91068    1.000
    N5442    N        0.87014    0.56726    0.97096    1.000
    N5443    N        0.93084    0.74103    0.88358    1.000
    N5444    N        0.90391    0.72949    0.94815    1.000
    Si5445   Si       0.88742    0.74767    0.98414    1.000
    Si5446   Si       0.87226    0.70673    0.93025    1.000
    N5447    N        0.90354    0.78354    0.07460    1.000
    Si5448   Si       0.89119    0.80009    0.03738    1.000
    N5449    N        0.91610    0.83297    0.02593    1.000
    Si5450   Si       0.91375    0.87591    0.02935    1.000
    N5451    N        0.91072    0.77706    0.00386    1.000
    N5452    N        0.88161    0.91416    0.10645    1.000
    N5453    N        0.90121    0.95679    0.05361    1.000
    Si5454   Si       0.90361    0.98884    0.08178    1.000
    Si5455   Si       0.89716    0.96617    0.01163    1.000
    Si5456   Si       0.87622    0.92250    0.06414    1.000
    N5457    N        0.89923    0.00792    0.00063    1.000
    N5458    N        0.90494    0.85226    0.12570    1.000
    N5459    N        0.88504    0.81917    0.18795    1.000
    N5460    N        0.92184    0.87749    0.19471    1.000
    Si5461   Si       0.89112    0.81199    0.23260    1.000
    Si5462   Si       0.91573    0.84265    0.16764    1.000
    N5463    N        0.88426    0.76789    0.23769    1.000
    Si5464   Si       0.88772    0.94532    0.13706    1.000
    N5465    N        0.91440    0.97633    0.12177    1.000
    Si5466   Si       0.88478    0.90119    0.19345    1.000
    N5467    N        0.90189    0.93825    0.17714    1.000
    N5468    N        0.90767    0.81983    0.32009    1.000
    N5469    N        0.93002    0.81468    0.25268    1.000
    N5470    N        0.89922    0.96822    0.26441    1.000
    N5471    N        0.91078    0.92499    0.32464    1.000
    Si5472   Si       0.88737    0.94622    0.35100    1.000
    Si5473   Si       0.89574    0.92727    0.28400    1.000
    N5474    N        0.90844    0.89799    0.25436    1.000
    N5475    N        0.91614    0.99306    0.32731    1.000
    Si5476   Si       0.92569    0.99771    0.28393    1.000
    N5477    N        0.91098    0.85680    0.38188    1.000
    Si5478   Si       0.91235    0.77392    0.44811    1.000
    N5479    N        0.89432    0.81301    0.43909    1.000
    Si5480   Si       0.88298    0.83037    0.40015    1.000
    N5481    N        0.88661    0.76219    0.48646    1.000
    N5482    N        0.91221    0.90822    0.42786    1.000
    Si5483   Si       0.91166    0.99093    0.41726    1.000
    N5484    N        0.88916    0.94185    0.48771    1.000
    N5485    N        0.87892    0.00357    0.44267    1.000
    N5486    N        0.89796    0.96101    0.39072    1.000
    Si5487   Si       0.88329    0.98512    0.48470    1.000
    Si5488   Si       0.87776    0.92634    0.40883    1.000
    Si5489   Si       0.89211    0.85397    0.51994    1.000
    Si5490   Si       0.88215    0.78094    0.52701    1.000
    N5491    N        0.92339    0.77100    0.54137    1.000
    N5492    N        0.88180    0.83188    0.61924    1.000
    N5493    N        0.87673    0.82299    0.54518    1.000
    N5494    N        0.93276    0.83893    0.51579    1.000
    N5495    N        0.89680    0.89174    0.54198    1.000
    Si5496   Si       0.91297    0.92514    0.52030    1.000
    N5497    N        0.90544    0.91925    0.60335    1.000
    N5498    N        0.92430    0.98905    0.60641    1.000
    N5499    N        0.91398    0.00677    0.50590    1.000
    Si5500   Si       0.87612    0.91418    0.57318    1.000
    N5501    N        0.92851    0.95200    0.55026    1.000
    Si5502   Si       0.92847    0.80633    0.74269    1.000
    Si5503   Si       0.89182    0.87904    0.61986    1.000
    N5504    N        0.88532    0.80555    0.73519    1.000
    N5505    N        0.91420    0.79268    0.65530    1.000
    N5506    N        0.89975    0.87670    0.71795    1.000
    N5507    N        0.92953    0.86722    0.63947    1.000
    Si5508   Si       0.92979    0.82498    0.62742    1.000
    Si5509   Si       0.87219    0.80294    0.65199    1.000
    Si5510   Si       0.91382    0.88910    0.67843    1.000
    N5511    N        0.87560    0.89422    0.65857    1.000
    N5512    N        0.90184    0.84545    0.82553    1.000
    Si5513   Si       0.90366    0.85585    0.86748    1.000
    N5514    N        0.93150    0.79016    0.78439    1.000
    N5515    N        0.88103    0.76245    0.82969    1.000
    Si5516   Si       0.92066    0.88695    0.75649    1.000
    N5517    N        0.91750    0.95489    0.83488    1.000
    N5518    N        0.89476    0.89724    0.79080    1.000
    N5519    N        0.89746    0.95659    0.76622    1.000
    Si5520   Si       0.89037    0.93783    0.80555    1.000
    Si5521   Si       0.92827    0.81370    0.98928    1.000
    N5522    N        0.88481    0.79300    0.89638    1.000
    N5523    N        0.90978    0.83018    0.95252    1.000
    Si5524   Si       0.91925    0.81053    0.91530    1.000
    Si5525   Si       0.88553    0.86520    0.96580    1.000
    Si5526   Si       0.89028    0.75658    0.87318    1.000
    Si5527   Si       0.91250    0.93785    0.87526    1.000
    N5528    N        0.87563    0.93960    0.89805    1.000
    Si5529   Si       0.91637    0.99527    0.96266    1.000
    N5530    N        0.91721    0.89579    0.88291    1.000
    N5531    N        0.92494    0.95456    0.97755    1.000
    N5532    N        0.88474    0.00069    0.93340    1.000
    N5533    N        0.91690    0.88644    0.98761    1.000
    Si5534   Si       0.95922    0.08853    0.03659    1.000
    Si5535   Si       0.97328    0.02418    0.07416    1.000
    N5536    N        0.98010    0.12317    0.02016    1.000
    N5537    N        0.94095    0.05991    0.01081    1.000
    N5538    N        0.97957    0.06549    0.06648    1.000
    N5539    N        0.97829    0.01234    0.11697    1.000
    N5540    N        0.93030    0.01707    0.06545    1.000
    N5541    N        0.97776    0.18060    0.08305    1.000
    Si5542   Si       0.95290    0.15662    0.01164    1.000
    Si5543   Si       0.93645    0.18007    0.08334    1.000
    Si5544   Si       0.95157    0.10981    0.19670    1.000
    Si5545   Si       0.95262    0.04154    0.18426    1.000
    N5546    N        0.94550    0.07088    0.21568    1.000
    N5547    N        0.92824    0.04167    0.14901    1.000
    N5548    N        0.93770    0.14779    0.21504    1.000
    Si5549   Si       0.95345    0.20056    0.19738    1.000
    N5550    N        0.97459    0.23350    0.17739    1.000
    N5551    N        0.97767    0.07006    0.27768    1.000
    Si5552   Si       0.93897    0.07362    0.25962    1.000
    N5553    N        0.97060    0.03273    0.33652    1.000
    Si5554   Si       0.97012    0.06543    0.36625    1.000
    Si5555   Si       0.95719    0.19623    0.31708    1.000
    N5556    N        0.97859    0.15916    0.32331    1.000
    N5557    N        0.93641    0.21250    0.35097    1.000
    N5558    N        0.93461    0.18625    0.28061    1.000
    N5559    N        0.98776    0.22633    0.30688    1.000
    Si5560   Si       0.99022    0.14068    0.36084    1.000
    N5561    N        0.92854    0.26119    0.28301    1.000
    N5562    N        0.97254    0.03113    0.47385    1.000
    N5563    N        0.97870    0.09944    0.46313    1.000
    N5564    N        0.93396    0.08723    0.37700    1.000
    N5565    N        0.98472    0.05573    0.40555    1.000
    Si5566   Si       0.98945    0.05982    0.44720    1.000
    Si5567   Si       0.95076    0.13538    0.46573    1.000
    Si5568   Si       0.98066    0.18436    0.41909    1.000
    N5569    N        0.97283    0.17222    0.45946    1.000
    N5570    N        0.96771    0.22484    0.41242    1.000
    N5571    N        0.96478    0.15258    0.39251    1.000
    N5572    N        0.96342    0.07635    0.52550    1.000
    N5573    N        0.96949    0.04918    0.60036    1.000
    N5574    N        0.95718    0.02122    0.54825    1.000
    Si5575   Si       0.93710    0.02469    0.58634    1.000
    Si5576   Si       0.94222    0.04349    0.50249    1.000
    Si5577   Si       0.98474    0.05793    0.55997    1.000
    N5578    N        0.97265    0.23138    0.57739    1.000
    Si5579   Si       0.96654    0.16203    0.60511    1.000
    Si5580   Si       0.93496    0.21075    0.56504    1.000
    N5581    N        0.93363    0.16940    0.57812    1.000
    N5582    N        0.96249    0.12107    0.62540    1.000
    Si5583   Si       0.93987    0.10702    0.66117    1.000
    Si5584   Si       0.95051    0.06402    0.72814    1.000
    N5585    N        0.96063    0.09019    0.69498    1.000
    N5586    N        0.95559    0.02278    0.66329    1.000
    N5587    N        0.97912    0.03027    0.72808    1.000
    Si5588   Si       0.94005    0.16471    0.70735    1.000
    N5589    N        0.98084    0.15199    0.71330    1.000
    Si5590   Si       0.96217    0.23338    0.72253    1.000
    N5591    N        0.97896    0.18731    0.63932    1.000
    N5592    N        0.94338    0.20747    0.69526    1.000
    Si5593   Si       0.94934    0.21761    0.65313    1.000
    N5594    N        0.96042    0.08034    0.84077    1.000
    Si5595   Si       0.97205    0.09310    0.79306    1.000
    N5596    N        0.94044    0.06832    0.76844    1.000
    N5597    N        0.94162    0.12788    0.79045    1.000
    Si5598   Si       0.98305    0.01875    0.76998    1.000
    Si5599   Si       0.98548    0.04461    0.84383    1.000
    Si5600   Si       0.96865    0.11066    0.86786    1.000
    N5601    N        0.96829    0.15144    0.85300    1.000
    Si5602   Si       0.95552    0.16349    0.81253    1.000
    N5603    N        0.93436    0.23921    0.75559    1.000
    N5604    N        0.98328    0.24873    0.80524    1.000
    N5605    N        0.95300    0.01611    0.95648    1.000
    Si5606   Si       0.94716    0.05880    0.96782    1.000
    N5607    N        0.94294    0.10958    0.90206    1.000
    N5608    N        0.97702    0.08851    0.95571    1.000
    Si5609   Si       0.96094    0.12694    0.93853    1.000
    N5610    N        0.96317    0.23395    0.93833    1.000
    N5611    N        0.93774    0.14642    0.97176    1.000
    N5612    N        0.97347    0.16673    0.92336    1.000
    N5613    N        0.94248    0.21296    0.87022    1.000
    Si5614   Si       0.97213    0.18281    0.88384    1.000
    Si5615   Si       0.94637    0.24473    0.89986    1.000
    N5616    N        0.97707    0.19107    0.99318    1.000
    Si5617   Si       0.95651    0.19411    0.95452    1.000
    N5618    N        0.97863    0.28965    0.07124    1.000
    N5619    N        0.94878    0.35417    0.09927    1.000
    N5620    N        0.96343    0.26638    0.00579    1.000
    Si5621   Si       0.93548    0.30420    0.07066    1.000
    Si5622   Si       0.97032    0.38316    0.00369    1.000
    Si5623   Si       0.96924    0.38457    0.07710    1.000
    N5624    N        0.95723    0.42253    0.05086    1.000
    N5625    N        0.94130    0.45646    0.11565    1.000
    N5626    N        0.93680    0.50061    0.05144    1.000
    N5627    N        0.98827    0.48420    0.01250    1.000
    N5628    N        0.99114    0.40334    0.11215    1.000
    Si5629   Si       0.97536    0.27647    0.18262    1.000
    N5630    N        0.97537    0.29935    0.14542    1.000
    Si5631   Si       0.94399    0.32640    0.13350    1.000
    N5632    N        0.95706    0.29040    0.21863    1.000
    N5633    N        0.97202    0.40706    0.20442    1.000
    Si5634   Si       0.98500    0.44736    0.12342    1.000
    Si5635   Si       0.93295    0.41880    0.22025    1.000
    Si5636   Si       0.93290    0.46390    0.15729    1.000
    N5637    N        0.97769    0.46611    0.16378    1.000
    N5638    N        0.96407    0.29309    0.33815    1.000
    Si5639   Si       0.96344    0.35118    0.27982    1.000
    Si5640   Si       0.96736    0.26413    0.30594    1.000
    Si5641   Si       0.92986    0.30287    0.36379    1.000
    N5642    N        0.94481    0.38856    0.29236    1.000
    Si5643   Si       0.94608    0.48871    0.32233    1.000
    N5644    N        0.96114    0.44703    0.32327    1.000
    Si5645   Si       0.96797    0.42465    0.28541    1.000
    Si5646   Si       0.95598    0.42676    0.36309    1.000
    N5647    N        0.94709    0.44555    0.25357    1.000
    Si5648   Si       0.94111    0.48838    0.24949    1.000
    N5649    N        0.95584    0.50753    0.28548    1.000
    N5650    N        0.93760    0.34216    0.38137    1.000
    N5651    N        0.96695    0.26296    0.49102    1.000
    Si5652   Si       0.97023    0.30214    0.47188    1.000
    Si5653   Si       0.98191    0.36936    0.39775    1.000
    Si5654   Si       0.98472    0.37054    0.47720    1.000
    Si5655   Si       0.99143    0.46569    0.41776    1.000
    Si5656   Si       0.95216    0.50596    0.39035    1.000
    N5657    N        0.95562    0.46119    0.39162    1.000
    N5658    N        0.94376    0.38556    0.48379    1.000
    N5659    N        0.97561    0.45429    0.45822    1.000
    Si5660   Si       0.93765    0.46745    0.47264    1.000
    N5661    N        0.94663    0.39428    0.41277    1.000
    N5662    N        0.95896    0.30391    0.58905    1.000
    N5663    N        0.95602    0.37418    0.60391    1.000
    Si5664   Si       0.97595    0.26707    0.60335    1.000
    N5665    N        0.93329    0.34756    0.53911    1.000
    Si5666   Si       0.92987    0.31027    0.55758    1.000
    N5667    N        0.94215    0.46999    0.51681    1.000
    Si5668   Si       0.97664    0.49598    0.52787    1.000
    N5669    N        0.98981    0.49121    0.57109    1.000
    Si5670   Si       0.95538    0.33442    0.61938    1.000
    Si5671   Si       0.97498    0.30466    0.73280    1.000
    N5672    N        0.94951    0.32653    0.70358    1.000
    N5673    N        0.97251    0.27087    0.70684    1.000
    Si5674   Si       0.95629    0.29325    0.67101    1.000
    N5675    N        0.98555    0.32298    0.65082    1.000
    N5676    N        0.95865    0.26077    0.64296    1.000
    N5677    N        0.98462    0.38893    0.69467    1.000
    N5678    N        0.96383    0.48486    0.63882    1.000
    Si5679   Si       0.95045    0.39329    0.72308    1.000
    N5680    N        0.95983    0.43257    0.74432    1.000
    N5681    N        0.96199    0.33535    0.83387    1.000
    Si5682   Si       0.95989    0.34617    0.79042    1.000
    N5683    N        0.94106    0.36711    0.75591    1.000
    N5684    N        0.95784    0.30455    0.77311    1.000
    Si5685   Si       0.94405    0.26490    0.78994    1.000
    N5686    N        0.94301    0.42274    0.81752    1.000
    N5687    N        0.97152    0.49555    0.82743    1.000
    Si5688   Si       0.95923    0.50142    0.78548    1.000
    Si5689   Si       0.98685    0.41158    0.82001    1.000
    Si5690   Si       0.93019    0.43848    0.77793    1.000
    N5691    N        0.99010    0.49991    0.75028    1.000
    N5692    N        0.98399    0.35884    0.96579    1.000
    Si5693   Si       0.95522    0.26596    0.96465    1.000
    N5694    N        0.98084    0.29862    0.94586    1.000
    Si5695   Si       0.96338    0.33690    0.93193    1.000
    N5696    N        0.97317    0.26940    0.87979    1.000
    Si5697   Si       0.97908    0.45786    0.97414    1.000
    N5698    N        0.97336    0.41890    0.92851    1.000
    Si5699   Si       0.93264    0.43666    0.92533    1.000
    N5700    N        0.94160    0.46730    0.95786    1.000
    Si5701   Si       0.96311    0.58638    0.05175    1.000
    N5702    N        0.95455    0.55624    0.02016    1.000
    N5703    N        0.95459    0.62644    0.03700    1.000
    Si5704   Si       0.97149    0.51850    0.03415    1.000
    N5705    N        0.93126    0.57096    0.07757    1.000
    Si5706   Si       0.93511    0.63618    0.00097    1.000
    Si5707   Si       0.94753    0.65328    0.06883    1.000
    Si5708   Si       0.97088    0.70663    0.09332    1.000
    N5709    N        0.94760    0.72276    0.00333    1.000
    N5710    N        0.93951    0.69647    0.06226    1.000
    N5711    N        0.98514    0.66344    0.08756    1.000
    N5712    N        0.97101    0.52639    0.13117    1.000
    N5713    N        0.95762    0.59456    0.19888    1.000
    Si5714   Si       0.97984    0.62848    0.18796    1.000
    Si5715   Si       0.97210    0.50919    0.17316    1.000
    Si5716   Si       0.92597    0.53363    0.13019    1.000
    N5717    N        0.96416    0.50291    0.21768    1.000
    N5718    N        0.97500    0.63370    0.14589    1.000
    N5719    N        0.95455    0.74780    0.24313    1.000
    N5720    N        0.94798    0.70066    0.13057    1.000
    N5721    N        0.96169    0.65720    0.21789    1.000
    Si5722   Si       0.93821    0.65860    0.13850    1.000
    N5723    N        0.95021    0.62433    0.30152    1.000
    Si5724   Si       0.97750    0.54569    0.27569    1.000
    N5725    N        0.94399    0.57057    0.26180    1.000
    N5726    N        0.96923    0.51287    0.35172    1.000
    N5727    N        0.95853    0.66598    0.35463    1.000
    N5728    N        0.96443    0.68949    0.28363    1.000
    Si5729   Si       0.94357    0.66443    0.31482    1.000
    Si5730   Si       0.96461    0.73226    0.28172    1.000
    Si5731   Si       0.98663    0.66675    0.25297    1.000
    N5732    N        0.94376    0.75857    0.31043    1.000
    Si5733   Si       0.98885    0.60967    0.37433    1.000
    N5734    N        0.94707    0.61429    0.38595    1.000
    Si5735   Si       0.94082    0.60091    0.42643    1.000
    Si5736   Si       0.94331    0.54165    0.47109    1.000
    N5737    N        0.96061    0.56516    0.43950    1.000
    N5738    N        0.95951    0.62856    0.45402    1.000
    N5739    N        0.98883    0.50883    0.41596    1.000
    N5740    N        0.98352    0.68387    0.42288    1.000
    N5741    N        0.95316    0.72709    0.38074    1.000
    Si5742   Si       0.97460    0.70888    0.45924    1.000
    Si5743   Si       0.98172    0.69109    0.38064    1.000
    N5744    N        0.97796    0.67730    0.48934    1.000
    N5745    N        0.93397    0.72090    0.45482    1.000
    Si5746   Si       0.95265    0.64133    0.49415    1.000
    N5747    N        0.96916    0.60677    0.58307    1.000
    N5748    N        0.96986    0.60857    0.51803    1.000
    N5749    N        0.96451    0.53369    0.50842    1.000
    Si5750   Si       0.93825    0.57865    0.59749    1.000
    Si5751   Si       0.94594    0.57244    0.52351    1.000
    Si5752   Si       0.98151    0.50991    0.60874    1.000
    N5753    N        0.95921    0.54715    0.62180    1.000
    Si5754   Si       0.98251    0.62610    0.61802    1.000
    N5755    N        0.94876    0.71603    0.58595    1.000
    Si5756   Si       0.94501    0.73238    0.54675    1.000
    Si5757   Si       0.98048    0.73300    0.61127    1.000
    N5758    N        0.98544    0.73000    0.52989    1.000
    N5759    N        0.94192    0.58665    0.68245    1.000
    Si5760   Si       0.97126    0.56304    0.65998    1.000
    Si5761   Si       0.94848    0.58650    0.72501    1.000
    N5762    N        0.98405    0.57140    0.74292    1.000
    N5763    N        0.94697    0.62842    0.74133    1.000
    Si5764   Si       0.95870    0.66550    0.72418    1.000
    Si5765   Si       0.98797    0.71899    0.68296    1.000
    N5766    N        0.95968    0.68661    0.68530    1.000
    N5767    N        0.95211    0.65797    0.62585    1.000
    N5768    N        0.96752    0.74335    0.65339    1.000
    Si5769   Si       0.95566    0.53581    0.84241    1.000
    N5770    N        0.95348    0.54488    0.79613    1.000
    N5771    N        0.94632    0.62382    0.86206    1.000
    N5772    N        0.97772    0.60514    0.80522    1.000
    Si5773   Si       0.94295    0.62513    0.78488    1.000
    Si5774   Si       0.98534    0.60916    0.84732    1.000
    N5775    N        0.98980    0.56443    0.85748    1.000
    N5776    N        0.94476    0.66306    0.80645    1.000
    Si5777   Si       0.95627    0.69971    0.78744    1.000
    Si5778   Si       0.95870    0.73059    0.85317    1.000
    Si5779   Si       0.94119    0.66506    0.84753    1.000
    N5780    N        0.94099    0.72912    0.81459    1.000
    N5781    N        0.96911    0.69005    0.86688    1.000
    N5782    N        0.94076    0.69729    0.74770    1.000
    Si5783   Si       0.96252    0.56318    0.97703    1.000
    Si5784   Si       0.96997    0.62537    0.94848    1.000
    N5785    N        0.94995    0.52220    0.88587    1.000
    N5786    N        0.97975    0.58146    0.93318    1.000
    Si5787   Si       0.98297    0.55089    0.90163    1.000
    N5788    N        0.93706    0.60126    0.97254    1.000
    N5789    N        0.93347    0.53802    0.95673    1.000
    Si5790   Si       0.97470    0.69819    0.97865    1.000
    N5791    N        0.97751    0.71900    0.93894    1.000
    N5792    N        0.95074    0.66253    0.97027    1.000
    Si5793   Si       0.94009    0.74016    0.92642    1.000
    N5794    N        0.96268    0.82766    0.09004    1.000
    Si5795   Si       0.94484    0.78832    0.08667    1.000
    Si5796   Si       0.93922    0.86250    0.10113    1.000
    N5797    N        0.96637    0.76793    0.05472    1.000
    Si5798   Si       0.95134    0.76466    0.01562    1.000
    N5799    N        0.93725    0.88777    0.06455    1.000
    N5800    N        0.97193    0.92037    0.01597    1.000
    Si5801   Si       0.97532    0.90493    0.05686    1.000
    N5802    N        0.98466    0.93600    0.08515    1.000
    N5803    N        0.95020    0.76627    0.12328    1.000
    N5804    N        0.95486    0.82205    0.15998    1.000
    Si5805   Si       0.95827    0.77849    0.16383    1.000
    Si5806   Si       0.98704    0.85193    0.14945    1.000
    N5807    N        0.96423    0.88398    0.12885    1.000
    Si5808   Si       0.94048    0.95562    0.18883    1.000
    N5809    N        0.95643    0.93247    0.21950    1.000
    Si5810   Si       0.94682    0.99693    0.14325    1.000
    Si5811   Si       0.98425    0.92516    0.12754    1.000
    N5812    N        0.94485    0.99938    0.18953    1.000
    Si5813   Si       0.94368    0.89337    0.22908    1.000
    N5814    N        0.96572    0.95436    0.15379    1.000
    N5815    N        0.95749    0.86274    0.33042    1.000
    Si5816   Si       0.96941    0.83182    0.25531    1.000
    N5817    N        0.97852    0.81322    0.29570    1.000
    N5818    N        0.97398    0.87461    0.25118    1.000
    Si5819   Si       0.93508    0.79749    0.29318    1.000
    Si5820   Si       0.93345    0.83417    0.35231    1.000
    Si5821   Si       0.95748    0.76060    0.35280    1.000
    N5822    N        0.95087    0.80007    0.37208    1.000
    N5823    N        0.97208    0.92556    0.30316    1.000
    N5824    N        0.96979    0.99485    0.28134    1.000
    Si5825   Si       0.95020    0.90668    0.33576    1.000
    Si5826   Si       0.94746    0.00180    0.35894    1.000
    Si5827   Si       0.96499    0.81183    0.41189    1.000
    N5828    N        0.96323    0.85545    0.41863    1.000
    N5829    N        0.95488    0.78338    0.44397    1.000
    Si5830   Si       0.93741    0.88552    0.40103    1.000
    N5831    N        0.98787    0.85872    0.48425    1.000
    Si5832   Si       0.98591    0.93840    0.39959    1.000
    N5833    N        0.97791    0.97778    0.37810    1.000
    Si5834   Si       0.93963    0.92826    0.45548    1.000
    N5835    N        0.96100    0.91095    0.37634    1.000
    Si5836   Si       0.97800    0.98874    0.46389    1.000
    N5837    N        0.94420    0.90816    0.49535    1.000
    N5838    N        0.94327    0.97219    0.44175    1.000
    N5839    N        0.97949    0.91672    0.43741    1.000
    N5840    N        0.94430    0.81939    0.58680    1.000
    Si5841   Si       0.94556    0.80614    0.54288    1.000
    Si5842   Si       0.95835    0.87189    0.51255    1.000
    N5843    N        0.98545    0.80092    0.52874    1.000
    Si5844   Si       0.98607    0.80917    0.60226    1.000
    N5845    N        0.98027    0.87959    0.54857    1.000
    N5846    N        0.99039    0.76775    0.58942    1.000
    N5847    N        0.97187    0.92752    0.61023    1.000
    Si5848   Si       0.94550    0.98419    0.52827    1.000
    N5849    N        0.97427    0.96709    0.50357    1.000
    Si5850   Si       0.93609    0.94918    0.59326    1.000
    N5851    N        0.94992    0.78283    0.71217    1.000
    N5852    N        0.97195    0.81801    0.64219    1.000
    N5853    N        0.98065    0.85706    0.70731    1.000
    Si5854   Si       0.93640    0.76211    0.67586    1.000
    Si5855   Si       0.96526    0.89464    0.63885    1.000
    Si5856   Si       0.97137    0.00066    0.69764    1.000
    N5857    N        0.95492    0.96779    0.71722    1.000
    N5858    N        0.94941    0.91287    0.67747    1.000
    Si5859   Si       0.97073    0.92764    0.71246    1.000
    N5860    N        0.97362    0.83279    0.82198    1.000
    N5861    N        0.94104    0.84725    0.76313    1.000
    Si5862   Si       0.97256    0.84257    0.86491    1.000
    Si5863   Si       0.93390    0.83067    0.80208    1.000
    Si5864   Si       0.98166    0.85427    0.74834    1.000
    N5865    N        0.97036    0.00299    0.85143    1.000
    N5866    N        0.95463    0.98767    0.78619    1.000
    Si5867   Si       0.93645    0.99340    0.82514    1.000
    Si5868   Si       0.93850    0.95815    0.75588    1.000
    N5869    N        0.95133    0.91505    0.74993    1.000
    N5870    N        0.98209    0.88306    0.87467    1.000
    N5871    N        0.94855    0.78290    0.93175    1.000
    Si5872   Si       0.98506    0.79912    0.95276    1.000
    N5873    N        0.93636    0.83256    0.88320    1.000
    N5874    N        0.96806    0.79851    0.99274    1.000
    Si5875   Si       0.95697    0.90490    0.90072    1.000
    Si5876   Si       0.98320    0.97249    0.87972    1.000
    N5877    N        0.95120    0.94788    0.89301    1.000
    N5878    N        0.96757    0.90246    0.94228    1.000
    Si5879   Si       0.94734    0.91776    0.98014    1.000
