# CIF file generated by openbabel 3.1.1, see https://openbabel.org
data_I
_chemical_name_common '3.01-84.aims'
_cell_length_a 39.8799
_cell_length_b 39.8799
_cell_length_c 39.8799
_cell_angle_alpha 90
_cell_angle_beta 90
_cell_angle_gamma 90
loop_
    _atom_site_label
    _atom_site_type_symbol
    _atom_site_fract_x
    _atom_site_fract_y
    _atom_site_fract_z
    _atom_site_occupancy
    Si0      Si       0.02929    0.03943    0.02487    1.000
    N1       N        0.02093    0.05530    0.11193    1.000
    N2       N        0.99936    0.11859    0.01194    1.000
    Si3      Si       0.01634    0.09911    0.11435    1.000
    N4       N        0.99408    0.11228    0.07985    1.000
    Si5      Si       0.01070    0.15815    0.08245    1.000
    N6       N        0.03501    0.19691    0.08879    1.000
    Si7      Si       0.03462    0.14351    0.01497    1.000
    Si8      Si       0.00422    0.25343    0.00860    1.000
    N9       N        0.99174    0.24505    0.04844    1.000
    N10      N        0.04688    0.14716    0.05483    1.000
    Si11     Si       0.02191    0.22217    0.12207    1.000
    Si12     Si       0.99509    0.02306    0.12464    1.000
    N13      N        0.03362    0.06409    0.19244    1.000
    Si14     Si       0.04303    0.06803    0.23549    1.000
    Si15     Si       0.99397    0.06742    0.17793    1.000
    N16      N        0.01147    0.25897    0.24028    1.000
    Si17     Si       0.00443    0.17463    0.22651    1.000
    N18      N        0.03356    0.15472    0.20081    1.000
    Si19     Si       0.03858    0.16447    0.15746    1.000
    N20      N        0.01142    0.14723    0.12651    1.000
    N21      N        0.04464    0.20855    0.15555    1.000
    Si22     Si       0.02664    0.03303    0.29584    1.000
    N23      N        0.02527    0.06259    0.32716    1.000
    Si24     Si       0.03571    0.10062    0.30547    1.000
    N25      N        0.01073    0.05375    0.26020    1.000
    N26      N        0.00070    0.12365    0.31217    1.000
    Si27     Si       0.03364    0.05253    0.37085    1.000
    Si28     Si       0.01847    0.20656    0.33732    1.000
    N29      N        0.01369    0.24217    0.31307    1.000
    N30      N        0.02375    0.19685    0.25884    1.000
    Si31     Si       0.00140    0.23092    0.27319    1.000
    Si32     Si       0.99017    0.14215    0.35234    1.000
    N33      N        0.00668    0.02072    0.38351    1.000
    N34      N        0.02738    0.07466    0.40589    1.000
    Si35     Si       0.00941    0.03733    0.42379    1.000
    Si36     Si       0.03055    0.11829    0.41472    1.000
    Si37     Si       0.00261    0.12539    0.48784    1.000
    N38      N        0.02110    0.01423    0.45612    1.000
    N39      N        0.00140    0.12852    0.44327    1.000
    N40      N        0.02673    0.13883    0.37625    1.000
    N41      N        0.03342    0.21434    0.37574    1.000
    Si42     Si       0.01545    0.24754    0.40061    1.000
    N43      N        0.02652    0.25059    0.44188    1.000
    N44      N        0.03522    0.19894    0.49365    1.000
    Si45     Si       0.01669    0.02519    0.60005    1.000
    Si46     Si       0.99774    0.12064    0.60186    1.000
    Si47     Si       0.99844    0.06981    0.54324    1.000
    N48      N        0.03015    0.06175    0.61834    1.000
    N49      N        0.03970    0.12351    0.58959    1.000
    N50      N        0.04330    0.12816    0.50487    1.000
    N51      N        0.04275    0.07105    0.55087    1.000
    N52      N        0.99184    0.03186    0.56235    1.000
    Si53     Si       0.00283    0.19367    0.60886    1.000
    N54      N        0.04144    0.19811    0.59367    1.000
    Si55     Si       0.99239    0.19854    0.50226    1.000
    N56      N        0.00575    0.09818    0.72548    1.000
    N57      N        0.99813    0.04793    0.67951    1.000
    Si58     Si       0.01023    0.05641    0.72114    1.000
    Si59     Si       0.01622    0.07918    0.65521    1.000
    Si60     Si       0.04314    0.12140    0.71613    1.000
    N61      N        0.01424    0.18620    0.65207    1.000
    Si62     Si       0.02516    0.18154    0.72729    1.000
    N63      N        0.03879    0.22559    0.71050    1.000
    N64      N        0.04610    0.01084    0.51557    1.000
    N65      N        0.05081    0.09718    0.67530    1.000
    N66      N        0.04878    0.04116    0.73036    1.000
    N67      N        0.01601    0.11319    0.81490    1.000
    Si68     Si       0.02320    0.10774    0.85761    1.000
    N69      N        0.02843    0.01986    0.79525    1.000
    N70      N        0.99903    0.01383    0.85809    1.000
    N71      N        0.02460    0.17844    0.81535    1.000
    Si72     Si       0.02187    0.18114    0.85703    1.000
    Si73     Si       0.04245    0.14313    0.79600    1.000
    N74      N        0.00579    0.20639    0.75918    1.000
    N75      N        0.03682    0.14831    0.75318    1.000
    N76      N        0.99917    0.24426    0.81883    1.000
    Si77     Si       0.99392    0.20506    0.80047    1.000
    Si78     Si       0.04392    0.17406    0.91155    1.000
    N79      N        0.99082    0.08165    0.87163    1.000
    N80      N        0.03841    0.04927    0.98340    1.000
    Si81     Si       0.99609    0.04306    0.89168    1.000
    Si82     Si       0.03902    0.08871    0.96725    1.000
    N83      N        0.02315    0.02548    0.91879    1.000
    N84      N        0.99622    0.09194    0.94885    1.000
    N85      N        0.00549    0.18859    0.92825    1.000
    N86      N        0.03055    0.14413    0.87896    1.000
    Si87     Si       0.99504    0.18721    0.97005    1.000
    N88      N        0.03042    0.18143    0.99430    1.000
    Si89     Si       0.02489    0.24162    0.74848    1.000
    N90      N        0.01122    0.32071    0.07380    1.000
    Si91     Si       0.00007    0.29717    0.10882    1.000
    N92      N        0.02883    0.26368    0.11150    1.000
    Si93     Si       0.00693    0.45891    0.22742    1.000
    N94      N        0.03117    0.50082    0.13003    1.000
    Si95     Si       0.99790    0.43045    0.09373    1.000
    N96      N        0.04061    0.43702    0.09803    1.000
    Si97     Si       0.03324    0.47839    0.16863    1.000
    N98      N        0.99807    0.42085    0.24598    1.000
    N99      N        0.99582    0.46692    0.18583    1.000
    N100     N        0.99197    0.46325    0.99690    1.000
    N101     N        0.99010    0.39467    0.11818    1.000
    Si102    Si       0.99619    0.30740    0.18058    1.000
    N103     N        0.00093    0.32642    0.14065    1.000
    N104     N        0.02966    0.31906    0.20505    1.000
    Si105    Si       0.03430    0.36141    0.21169    1.000
    Si106    Si       0.00969    0.36723    0.14446    1.000
    N107     N        0.99909    0.37448    0.18627    1.000
    Si108    Si       0.04405    0.28419    0.22877    1.000
    N109     N        0.98831    0.35648    0.02467    1.000
    Si110    Si       0.99146    0.50751    0.11217    1.000
    N111     N        0.01129    0.31185    0.30722    1.000
    Si112    Si       0.02816    0.27902    0.32944    1.000
    N113     N        0.03208    0.35913    0.25571    1.000
    Si114    Si       0.03858    0.37595    0.34333    1.000
    Si115    Si       0.04367    0.33098    0.28570    1.000
    N116     N        0.00674    0.38801    0.31244    1.000
    Si117    Si       0.02330    0.39799    0.27385    1.000
    N118     N        0.99899    0.46984    0.35185    1.000
    N119     N        0.99516    0.49062    0.25292    1.000
    N120     N        0.02821    0.28034    0.37464    1.000
    N121     N        0.03108    0.34732    0.37457    1.000
    N122     N        0.00152    0.30199    0.49114    1.000
    Si123    Si       0.01410    0.29325    0.45151    1.000
    Si124    Si       0.00260    0.31576    0.38277    1.000
    Si125    Si       0.03493    0.36198    0.45805    1.000
    N126     N        0.99220    0.37155    0.45407    1.000
    N127     N        0.04198    0.32271    0.43921    1.000
    Si128    Si       0.03493    0.45513    0.37322    1.000
    N129     N        0.04368    0.41420    0.47886    1.000
    N130     N        0.04230    0.49860    0.46422    1.000
    Si131    Si       0.01014    0.48015    0.44195    1.000
    N132     N        0.02782    0.44753    0.41662    1.000
    N133     N        0.98499    0.29994    0.41905    1.000
    Si134    Si       0.02220    0.32372    0.52240    1.000
    Si135    Si       0.02169    0.28122    0.60098    1.000
    N136     N        0.99294    0.34297    0.54781    1.000
    N137     N        0.01612    0.32189    0.61862    1.000
    Si138    Si       0.00477    0.38539    0.55377    1.000
    N139     N        0.00646    0.45425    0.58881    1.000
    N140     N        0.03588    0.46121    0.52488    1.000
    Si141    Si       0.01445    0.49727    0.59624    1.000
    N142     N        0.99025    0.38912    0.59489    1.000
    Si143    Si       0.01270    0.43592    0.49977    1.000
    Si144    Si       0.04600    0.45573    0.56837    1.000
    Si145    Si       0.01296    0.36439    0.62339    1.000
    Si146    Si       0.01622    0.36668    0.70411    1.000
    Si147    Si       0.00880    0.29920    0.65718    1.000
    N148     N        0.00046    0.37444    0.66382    1.000
    N149     N        0.99373    0.33580    0.72641    1.000
    N150     N        0.04682    0.28896    0.67375    1.000
    N151     N        0.00170    0.26301    0.63558    1.000
    N152     N        0.00616    0.40751    0.71874    1.000
    Si153    Si       0.04166    0.43500    0.71220    1.000
    N154     N        0.01948    0.49795    0.64014    1.000
    Si155    Si       0.00106    0.50123    0.72714    1.000
    N156     N        0.02963    0.47454    0.69895    1.000
    Si157    Si       0.03406    0.34716    0.81534    1.000
    Si158    Si       0.03269    0.27197    0.81726    1.000
    N159     N        0.03714    0.31062    0.79436    1.000
    Si160    Si       0.01432    0.30570    0.75238    1.000
    N161     N        0.99439    0.35354    0.83228    1.000
    Si162    Si       0.02975    0.44169    0.98271    1.000
    N163     N        0.99097    0.27028    0.74505    1.000
    N164     N        0.02935    0.38047    0.78659    1.000
    N165     N        0.99123    0.46740    0.75311    1.000
    N166     N        0.02636    0.44017    0.81366    1.000
    Si167    Si       0.01530    0.47464    0.78916    1.000
    Si168    Si       0.01456    0.45027    0.85616    1.000
    Si169    Si       0.99461    0.39694    0.81451    1.000
    Si170    Si       0.02498    0.35713    0.99812    1.000
    Si171    Si       0.03663    0.30148    0.89359    1.000
    Si172    Si       0.03617    0.29989    0.96579    1.000
    Si173    Si       0.01163    0.36321    0.92287    1.000
    N174     N        0.00428    0.33203    0.89407    1.000
    N175     N        0.03498    0.27388    0.92943    1.000
    N176     N        0.02607    0.34235    0.95800    1.000
    N177     N        0.00177    0.29290    0.98986    1.000
    N178     N        0.04097    0.38925    0.90417    1.000
    N179     N        0.02232    0.39968    0.99219    1.000
    Si180    Si       0.99608    0.50601    0.99071    1.000
    N181     N        0.02094    0.44674    0.93933    1.000
    N182     N        0.04684    0.50249    0.78064    1.000
    N183     N        0.04822    0.27616    0.85802    1.000
    Si184    Si       0.01292    0.60217    0.03693    1.000
    N185     N        0.03926    0.56775    0.03831    1.000
    Si186    Si       0.03981    0.53441    0.06909    1.000
    N187     N        0.02361    0.62558    0.00173    1.000
    N188     N        0.99708    0.53107    0.07506    1.000
    N189     N        0.01597    0.63174    0.06982    1.000
    N190     N        0.03665    0.51548    0.00189    1.000
    N191     N        0.00517    0.74803    0.01691    1.000
    N192     N        0.01068    0.71723    0.08601    1.000
    Si193    Si       0.02687    0.66767    0.01080    1.000
    N194     N        0.02130    0.56924    0.15011    1.000
    Si195    Si       0.03314    0.61072    0.14989    1.000
    Si196    Si       0.04409    0.55890    0.99645    1.000
    N197     N        0.04682    0.51566    0.18912    1.000
    N198     N        0.00735    0.70465    0.15026    1.000
    N199     N        0.01842    0.67275    0.21987    1.000
    Si200    Si       0.00857    0.66840    0.17449    1.000
    N201     N        0.99677    0.63551    0.14327    1.000
    Si202    Si       0.01915    0.71818    0.22688    1.000
    Si203    Si       0.03082    0.74180    0.15958    1.000
    Si204    Si       0.05150    0.72072    0.09641    1.000
    N205     N        0.03369    0.58897    0.30188    1.000
    Si206    Si       0.00619    0.56958    0.32946    1.000
    Si207    Si       0.02864    0.59591    0.26015    1.000
    N208     N        0.01448    0.54395    0.36488    1.000
    N209     N        0.99411    0.53416    0.30627    1.000
    Si210    Si       0.99459    0.53114    0.26346    1.000
    Si211    Si       0.99376    0.51179    0.34410    1.000
    Si212    Si       0.99407    0.65596    0.25289    1.000
    Si213    Si       0.00388    0.64302    0.33213    1.000
    N214     N        0.01570    0.71858    0.33657    1.000
    N215     N        0.01345    0.65950    0.29198    1.000
    N216     N        0.01962    0.72763    0.26868    1.000
    Si217    Si       0.03366    0.70272    0.30049    1.000
    N218     N        0.04126    0.65785    0.35416    1.000
    N219     N        0.01552    0.58322    0.43382    1.000
    Si220    Si       0.99786    0.55319    0.40533    1.000
    Si221    Si       0.99690    0.60848    0.46424    1.000
    N222     N        0.03887    0.60848    0.48594    1.000
    N223     N        0.00625    0.65061    0.45606    1.000
    N224     N        0.02263    0.71942    0.45284    1.000
    Si225    Si       0.03007    0.69623    0.37123    1.000
    N226     N        0.99676    0.68837    0.39623    1.000
    Si227    Si       0.01606    0.75066    0.48066    1.000
    Si228    Si       0.99355    0.68888    0.44009    1.000
    Si229    Si       0.04477    0.65124    0.47802    1.000
    N230     N        0.98979    0.51279    0.41978    1.000
    N231     N        0.02880    0.55520    0.24627    1.000
    Si232    Si       0.00471    0.55310    0.54444    1.000
    N233     N        0.01476    0.59452    0.55540    1.000
    N234     N        0.04399    0.53881    0.52747    1.000
    N235     N        0.99218    0.53045    0.58006    1.000
    Si236    Si       0.01430    0.69489    0.53666    1.000
    N237     N        0.02584    0.73917    0.52061    1.000
    N238     N        0.01258    0.65900    0.56556    1.000
    Si239    Si       0.03934    0.67113    0.59687    1.000
    Si240    Si       0.00240    0.72578    0.61304    1.000
    N241     N        0.99739    0.72193    0.57010    1.000
    N242     N        0.00612    0.67021    0.69344    1.000
    N243     N        0.03417    0.75626    0.60441    1.000
    N244     N        0.03055    0.54114    0.71083    1.000
    Si245    Si       0.00203    0.56608    0.73113    1.000
    N246     N        0.01800    0.58081    0.64512    1.000
    N247     N        0.01341    0.68742    0.62827    1.000
    N248     N        0.01667    0.74074    0.74460    1.000
    N249     N        0.04869    0.67597    0.51400    1.000
    Si250    Si       0.01750    0.58835    0.80388    1.000
    N251     N        0.00793    0.59531    0.76100    1.000
    N252     N        0.00908    0.62910    0.81728    1.000
    Si253    Si       0.02759    0.66345    0.79800    1.000
    N254     N        0.02926    0.69952    0.81845    1.000
    N255     N        0.00185    0.66664    0.76247    1.000
    Si256    Si       0.99782    0.72159    0.98200    1.000
    Si257    Si       0.03025    0.61483    0.96067    1.000
    Si258    Si       0.00596    0.60918    0.89584    1.000
    N259     N        0.02104    0.57120    0.96356    1.000
    N260     N        0.00161    0.56615    0.89862    1.000
    N261     N        0.99247    0.62431    0.93630    1.000
    Si262    Si       0.99072    0.55434    0.93818    1.000
    N263     N        0.04544    0.61972    0.88470    1.000
    N264     N        0.02575    0.68965    0.97229    1.000
    Si265    Si       0.04362    0.74806    0.92733    1.000
    N266     N        0.00426    0.74914    0.94829    1.000
    N267     N        0.99068    0.51177    0.94552    1.000
    Si268    Si       0.01992    0.80889    0.08918    1.000
    Si269    Si       0.01569    0.79130    0.01529    1.000
    N270     N        0.00166    0.81517    0.04973    1.000
    Si271    Si       0.00074    0.85814    0.04587    1.000
    N272     N        0.04192    0.87021    0.04965    1.000
    N273     N        0.02490    0.84414    0.11546    1.000
    N274     N        0.02957    0.92956    0.01416    1.000
    N275     N        0.02270    0.99665    0.03895    1.000
    Si276    Si       0.03846    0.96913    0.00364    1.000
    Si277    Si       0.99598    0.95195    0.11942    1.000
    N278     N        0.01746    0.78215    0.16984    1.000
    N279     N        0.02526    0.84424    0.20180    1.000
    Si280    Si       0.04634    0.80850    0.19099    1.000
    N281     N        0.99499    0.79213    0.23884    1.000
    Si282    Si       0.03565    0.88796    0.20113    1.000
    N283     N        0.99796    0.90798    0.19887    1.000
    N284     N        0.01388    0.91325    0.12491    1.000
    N285     N        0.02137    0.98765    0.12234    1.000
    N286     N        0.04068    0.95234    0.17800    1.000
    Si287    Si       0.99566    0.94869    0.18780    1.000
    Si288    Si       0.99300    0.87344    0.11795    1.000
    N289     N        0.99197    0.87109    0.00483    1.000
    Si290    Si       0.99366    0.83542    0.22986    1.000
    N291     N        0.00473    0.78595    0.34815    1.000
    N292     N        0.03972    0.79001    0.29112    1.000
    Si293    Si       0.00537    0.76893    0.27428    1.000
    Si294    Si       0.02889    0.87501    0.34142    1.000
    N295     N        0.99924    0.86550    0.26111    1.000
    Si296    Si       0.04302    0.79625    0.33400    1.000
    N297     N        0.99455    0.85074    0.32745    1.000
    Si298    Si       0.01636    0.97300    0.26006    1.000
    N299     N        0.00638    0.91332    0.34806    1.000
    Si300    Si       0.03070    0.89567    0.27103    1.000
    N301     N        0.01187    0.93332    0.28034    1.000
    N302     N        0.00191    0.99810    0.29301    1.000
    N303     N        0.00263    0.83758    0.39267    1.000
    N304     N        0.04187    0.78596    0.47572    1.000
    Si305    Si       0.01047    0.99447    0.49566    1.000
    N306     N        0.01841    0.88499    0.49050    1.000
    N307     N        0.99708    0.89839    0.42801    1.000
    N308     N        0.99542    0.95186    0.39949    1.000
    Si309    Si       0.03589    0.88932    0.45105    1.000
    Si310    Si       0.01487    0.91406    0.39047    1.000
    Si311    Si       0.01269    0.79555    0.60725    1.000
    Si312    Si       0.03776    0.80706    0.51344    1.000
    N313     N        0.99941    0.82564    0.52120    1.000
    N314     N        0.04245    0.82736    0.60688    1.000
    N315     N        0.01273    0.93935    0.66582    1.000
    Si316    Si       0.02073    0.75845    0.55963    1.000
    N317     N        0.99299    0.91184    0.61369    1.000
    Si318    Si       0.99265    0.92078    0.50260    1.000
    N319     N        0.02073    0.95180    0.49667    1.000
    N320     N        0.01977    0.80592    0.70753    1.000
    N321     N        0.01710    0.86217    0.66328    1.000
    Si322    Si       0.99631    0.82754    0.67842    1.000
    Si323    Si       0.00658    0.78215    0.74011    1.000
    N324     N        0.00125    0.99900    0.63084    1.000
    N325     N        0.02689    0.95351    0.73272    1.000
    Si326    Si       0.04508    0.94568    0.69379    1.000
    Si327    Si       0.99356    0.95623    0.62815    1.000
    Si328    Si       0.99517    0.90053    0.65540    1.000
    N329     N        0.99098    0.79950    0.64419    1.000
    Si330    Si       0.02957    0.80256    0.81356    1.000
    N331     N        0.00747    0.80764    0.77659    1.000
    N332     N        0.00080    0.80234    0.84656    1.000
    Si333    Si       0.04449    0.87758    0.80496    1.000
    N334     N        0.04597    0.76435    0.81403    1.000
    N335     N        0.03726    0.87965    0.76115    1.000
    N336     N        0.01583    0.89383    0.83190    1.000
    Si337    Si       0.00580    0.93587    0.82642    1.000
    N338     N        0.03947    0.96191    0.83443    1.000
    Si339    Si       0.03563    0.00489    0.83553    1.000
    Si340    Si       0.00186    0.77512    0.88032    1.000
    N341     N        0.01038    0.84994    0.90763    1.000
    N342     N        0.03920    0.78263    0.90037    1.000
    Si343    Si       0.99528    0.91279    0.99158    1.000
    N344     N        0.01600    0.92767    0.89347    1.000
    Si345    Si       0.01361    0.98580    0.93380    1.000
    N346     N        0.00433    0.97742    0.97647    1.000
    Si347    Si       0.01317    0.89168    0.91773    1.000
    Si348    Si       0.08329    0.08302    0.02247    1.000
    N349     N        0.06380    0.10135    0.10167    1.000
    N350     N        0.08406    0.02685    0.11011    1.000
    Si351    Si       0.05970    0.05757    0.09255    1.000
    N352     N        0.05914    0.05738    0.04874    1.000
    N353     N        0.10552    0.11045    0.04933    1.000
    Si354    Si       0.08049    0.13150    0.07759    1.000
    N355     N        0.09456    0.23583    0.10051    1.000
    Si356    Si       0.07777    0.20145    0.07614    1.000
    N357     N        0.08728    0.21501    0.03570    1.000
    N358     N        0.10215    0.16895    0.08624    1.000
    N359     N        0.09197    0.19899    0.20698    1.000
    N360     N        0.09618    0.12014    0.21432    1.000
    Si361    Si       0.07374    0.04771    0.18486    1.000
    N362     N        0.08048    0.04677    0.22979    1.000
    N363     N        0.09407    0.07525    0.15758    1.000
    Si364    Si       0.10431    0.11542    0.17116    1.000
    Si365    Si       0.07676    0.15748    0.20873    1.000
    N366     N        0.07835    0.14657    0.15943    1.000
    Si367    Si       0.07732    0.22779    0.17871    1.000
    N368     N        0.04746    0.24965    0.00214    1.000
    N369     N        0.07356    0.11650    0.32373    1.000
    N370     N        0.06917    0.02458    0.29558    1.000
    Si371    Si       0.09823    0.02856    0.32915    1.000
    N372     N        0.07311    0.03396    0.36680    1.000
    Si373    Si       0.09001    0.11829    0.25703    1.000
    N374     N        0.05388    0.09875    0.26551    1.000
    Si375    Si       0.08612    0.01357    0.25834    1.000
    N376     N        0.08682    0.22470    0.27817    1.000
    Si377    Si       0.06168    0.15033    0.34855    1.000
    Si378    Si       0.06056    0.19005    0.28156    1.000
    N379     N        0.08171    0.16176    0.25760    1.000
    N380     N        0.04745    0.17862    0.32176    1.000
    N381     N        0.09324    0.17003    0.37211    1.000
    N382     N        0.06786    0.06465    0.48615    1.000
    Si383    Si       0.06289    0.02167    0.47159    1.000
    Si384    Si       0.08379    0.07793    0.44722    1.000
    N385     N        0.07249    0.11611    0.43115    1.000
    N386     N        0.08028    0.03658    0.43363    1.000
    Si387    Si       0.10191    0.02510    0.39818    1.000
    N388     N        0.09300    0.23675    0.46576    1.000
    Si389    Si       0.06966    0.20084    0.39239    1.000
    N390     N        0.10026    0.16187    0.48575    1.000
    N391     N        0.08854    0.24040    0.39511    1.000
    Si392    Si       0.09162    0.15540    0.44291    1.000
    Si393    Si       0.05413    0.21958    0.45992    1.000
    N394     N        0.06372    0.18730    0.43224    1.000
    Si395    Si       0.06410    0.09281    0.51860    1.000
    Si396    Si       0.06091    0.03148    0.54988    1.000
    Si397    Si       0.05491    0.08460    0.59017    1.000
    N398     N        0.09578    0.09003    0.60203    1.000
    N399     N        0.10342    0.03843    0.55260    1.000
    N400     N        0.10524    0.09833    0.53234    1.000
    Si401    Si       0.06170    0.16672    0.50946    1.000
    N402     N        0.07879    0.16987    0.54874    1.000
    Si403    Si       0.07238    0.22254    0.61138    1.000
    Si404    Si       0.06435    0.16000    0.58808    1.000
    N405     N        0.09209    0.24231    0.53690    1.000
    Si406    Si       0.10669    0.20174    0.55220    1.000
    N407     N        0.08634    0.10850    0.72671    1.000
    Si408    Si       0.08972    0.08592    0.68795    1.000
    N409     N        0.09996    0.04376    0.68817    1.000
    Si410    Si       0.07948    0.01442    0.71301    1.000
    N411     N        0.10225    0.25541    0.69019    1.000
    N412     N        0.08124    0.15480    0.62927    1.000
    Si413    Si       0.05556    0.17743    0.65868    1.000
    N414     N        0.05859    0.15919    0.69784    1.000
    Si415    Si       0.10141    0.15032    0.71035    1.000
    Si416    Si       0.06056    0.24663    0.68081    1.000
    N417     N        0.07657    0.21525    0.65254    1.000
    N418     N        0.07949    0.06864    0.78738    1.000
    Si419    Si       0.08265    0.06848    0.83373    1.000
    Si420    Si       0.06410    0.03080    0.77291    1.000
    N421     N        0.07535    0.02571    0.84250    1.000
    N422     N        0.06334    0.09248    0.86342    1.000
    Si423    Si       0.10040    0.10428    0.76802    1.000
    N424     N        0.08627    0.13565    0.79449    1.000
    Si425    Si       0.09471    0.24171    0.78775    1.000
    Si426    Si       0.07376    0.24069    0.86825    1.000
    N427     N        0.09787    0.23329    0.83194    1.000
    N428     N        0.05329    0.25227    0.78279    1.000
    Si429    Si       0.07787    0.10973    0.90084    1.000
    N430     N        0.09425    0.02048    0.95041    1.000
    N431     N        0.06414    0.08167    0.93260    1.000
    Si432    Si       0.05634    0.03866    0.94286    1.000
    N433     N        0.06199    0.11177    0.99610    1.000
    N434     N        0.08576    0.22119    0.95805    1.000
    N435     N        0.05186    0.20397    0.87925    1.000
    N436     N        0.07010    0.14499    0.93111    1.000
    Si437    Si       0.08937    0.13424    0.96841    1.000
    N438     N        0.09784    0.17039    0.98919    1.000
    N439     N        0.10055    0.25292    0.90232    1.000
    Si440    Si       0.06723    0.20657    0.99504    1.000
    N441     N        0.06785    0.28518    0.06271    1.000
    N442     N        0.07676    0.35029    0.08599    1.000
    Si443    Si       0.06940    0.27124    0.10358    1.000
    N444     N        0.05999    0.34215    0.01956    1.000
    Si445    Si       0.09708    0.36134    0.00331    1.000
    Si446    Si       0.05217    0.32648    0.05906    1.000
    Si447    Si       0.07943    0.26045    0.02951    1.000
    Si448    Si       0.10189    0.38387    0.07431    1.000
    Si449    Si       0.06747    0.49145    0.01920    1.000
    Si450    Si       0.05520    0.47764    0.09974    1.000
    N451     N        0.09790    0.39454    0.03408    1.000
    N452     N        0.06700    0.45179    0.00074    1.000
    N453     N        0.05377    0.49432    0.06004    1.000
    Si454    Si       0.10394    0.43320    0.01476    1.000
    N455     N        0.09438    0.48124    0.11696    1.000
    N456     N        0.05175    0.37223    0.14197    1.000
    Si457    Si       0.08207    0.34262    0.12877    1.000
    N458     N        0.08257    0.29981    0.13609    1.000
    N459     N        0.07165    0.26691    0.19993    1.000
    Si460    Si       0.10235    0.28603    0.17276    1.000
    N461     N        0.05046    0.45733    0.22339    1.000
    N462     N        0.05175    0.43689    0.16374    1.000
    N463     N        0.06993    0.38665    0.21217    1.000
    Si464    Si       0.07538    0.42982    0.19853    1.000
    Si465    Si       0.06220    0.41245    0.12975    1.000
    N466     N        0.10405    0.41013    0.11069    1.000
    N467     N        0.06728    0.35746    0.31355    1.000
    N468     N        0.07102    0.27477    0.32884    1.000
    N469     N        0.06311    0.29561    0.26764    1.000
    Si470    Si       0.08965    0.26806    0.28995    1.000
    Si471    Si       0.07193    0.27579    0.37404    1.000
    Si472    Si       0.07448    0.42834    0.32137    1.000
    N473     N        0.06346    0.41832    0.27768    1.000
    N474     N        0.08532    0.46714    0.30659    1.000
    Si475    Si       0.07618    0.46123    0.26026    1.000
    N476     N        0.06498    0.48654    0.37897    1.000
    N477     N        0.07458    0.50605    0.25883    1.000
    N478     N        0.04830    0.41961    0.35380    1.000
    Si479    Si       0.05506    0.42198    0.43669    1.000
    N480     N        0.09073    0.31217    0.39018    1.000
    Si481    Si       0.06015    0.34046    0.40379    1.000
    N482     N        0.06033    0.37994    0.42792    1.000
    N483     N        0.09283    0.44110    0.43131    1.000
    Si484    Si       0.10128    0.47339    0.40382    1.000
    Si485    Si       0.09212    0.39677    0.24851    1.000
    Si486    Si       0.08359    0.32777    0.51637    1.000
    Si487    Si       0.08155    0.27554    0.56116    1.000
    N488     N        0.05629    0.30363    0.53964    1.000
    N489     N        0.10349    0.36307    0.52926    1.000
    N490     N        0.06133    0.26253    0.59711    1.000
    N491     N        0.04868    0.35133    0.49887    1.000
    N492     N        0.09452    0.49905    0.50014    1.000
    Si493    Si       0.06940    0.39104    0.51270    1.000
    Si494    Si       0.07565    0.39447    0.58701    1.000
    N495     N        0.08035    0.43804    0.59100    1.000
    N496     N        0.10590    0.42085    0.50162    1.000
    N497     N        0.05363    0.49816    0.57946    1.000
    N498     N        0.04844    0.39380    0.55316    1.000
    Si499    Si       0.04902    0.49899    0.50811    1.000
    N500     N        0.05345    0.37789    0.62158    1.000
    N501     N        0.05435    0.30345    0.73576    1.000
    Si502    Si       0.07043    0.31456    0.69822    1.000
    N503     N        0.05431    0.35374    0.69126    1.000
    Si504    Si       0.07239    0.37897    0.66038    1.000
    N505     N        0.08961    0.50644    0.72255    1.000
    Si506    Si       0.10388    0.45461    0.62276    1.000
    N507     N        0.08504    0.47784    0.65653    1.000
    N508     N        0.07243    0.41507    0.68614    1.000
    Si509    Si       0.04956    0.49961    0.66856    1.000
    N510     N        0.06748    0.35870    0.84058    1.000
    Si511    Si       0.07745    0.30654    0.77246    1.000
    Si512    Si       0.09997    0.36708    0.81334    1.000
    Si513    Si       0.07887    0.48271    0.75808    1.000
    N514     N        0.09171    0.40506    0.79229    1.000
    Si515    Si       0.09048    0.47118    0.86378    1.000
    Si516    Si       0.05125    0.41798    0.78460    1.000
    N517     N        0.05717    0.44495    0.75067    1.000
    N518     N        0.09039    0.43723    0.93467    1.000
    N519     N        0.05398    0.45221    0.87612    1.000
    Si520    Si       0.09984    0.32865    0.93755    1.000
    N521     N        0.08040    0.29640    0.96107    1.000
    N522     N        0.10064    0.36570    0.95946    1.000
    Si523    Si       0.07175    0.36641    0.88248    1.000
    N524     N        0.07129    0.32705    0.90199    1.000
    Si525    Si       0.05294    0.43146    0.91353    1.000
    N526     N        0.08392    0.50342    0.83598    1.000
    Si527    Si       0.07579    0.25780    0.93839    1.000
    Si528    Si       0.08472    0.58601    0.09197    1.000
    N529     N        0.08355    0.61552    0.05713    1.000
    N530     N        0.06929    0.54713    0.10059    1.000
    N531     N        0.10311    0.51495    0.01445    1.000
    Si532    Si       0.10193    0.60054    0.01973    1.000
    N533     N        0.06623    0.61394    0.12039    1.000
    N534     N        0.07207    0.73649    0.06339    1.000
    Si535    Si       0.09357    0.70485    0.04280    1.000
    N536     N        0.06445    0.67868    0.10432    1.000
    N537     N        0.06003    0.67752    0.03573    1.000
    Si538    Si       0.05717    0.64850    0.07095    1.000
    Si539    Si       0.05878    0.65457    0.21575    1.000
    N540     N        0.09536    0.56193    0.22049    1.000
    Si541    Si       0.06175    0.53392    0.22646    1.000
    N542     N        0.09411    0.54080    0.15516    1.000
    N543     N        0.06144    0.62000    0.24050    1.000
    Si544    Si       0.05047    0.53672    0.14791    1.000
    N545     N        0.06305    0.74532    0.13047    1.000
    N546     N        0.04988    0.72778    0.19743    1.000
    Si547    Si       0.07741    0.65390    0.13847    1.000
    Si548    Si       0.09305    0.71988    0.20124    1.000
    N549     N        0.09089    0.68084    0.22112    1.000
    N550     N        0.05025    0.64633    0.17145    1.000
    Si551    Si       0.07339    0.57812    0.31873    1.000
    N552     N        0.07057    0.53471    0.33140    1.000
    N553     N        0.08166    0.59808    0.35621    1.000
    N554     N        0.10054    0.58012    0.28566    1.000
    Si555    Si       0.05821    0.52930    0.37118    1.000
    Si556    Si       0.08267    0.64165    0.35361    1.000
    N557     N        0.07422    0.69601    0.30610    1.000
    Si558    Si       0.10077    0.57774    0.39230    1.000
    Si559    Si       0.05778    0.57947    0.44137    1.000
    N560     N        0.08601    0.60753    0.42333    1.000
    N561     N        0.08399    0.56109    0.47424    1.000
    N562     N        0.06879    0.55024    0.40718    1.000
    Si563    Si       0.08284    0.51655    0.45999    1.000
    N564     N        0.10590    0.65799    0.38654    1.000
    N565     N        0.09330    0.74114    0.45112    1.000
    Si566    Si       0.06286    0.71259    0.43793    1.000
    N567     N        0.07133    0.67265    0.45090    1.000
    N568     N        0.05695    0.72006    0.39580    1.000
    Si569    Si       0.09967    0.64973    0.42899    1.000
    Si570    Si       0.08824    0.50933    0.30121    1.000
    Si571    Si       0.09919    0.59733    0.24576    1.000
    N572     N        0.08086    0.59979    0.53686    1.000
    Si573    Si       0.07232    0.53415    0.56635    1.000
    N574     N        0.06437    0.56876    0.59384    1.000
    Si575    Si       0.05984    0.57807    0.50835    1.000
    Si576    Si       0.05449    0.60417    0.57193    1.000
    N577     N        0.06605    0.63609    0.59727    1.000
    Si578    Si       0.08114    0.68861    0.54078    1.000
    Si579    Si       0.07426    0.73920    0.60477    1.000
    N580     N        0.06602    0.70085    0.58218    1.000
    N581     N        0.10485    0.71807    0.52477    1.000
    N582     N        0.10662    0.75627    0.58048    1.000
    N583     N        0.10085    0.57417    0.71852    1.000
    Si584    Si       0.09869    0.61004    0.69465    1.000
    N585     N        0.08435    0.60603    0.65443    1.000
    Si586    Si       0.07369    0.54433    0.70750    1.000
    Si587    Si       0.06018    0.57272    0.63668    1.000
    N588     N        0.07565    0.53838    0.66110    1.000
    N589     N        0.07479    0.67251    0.65602    1.000
    Si590    Si       0.09513    0.70770    0.67373    1.000
    N591     N        0.06739    0.70895    0.70677    1.000
    N592     N        0.07217    0.63697    0.71756    1.000
    Si593    Si       0.09380    0.64285    0.63131    1.000
    Si594    Si       0.05061    0.66799    0.69583    1.000
    Si595    Si       0.05926    0.73279    0.74075    1.000
    N596     N        0.08705    0.74056    0.64697    1.000
    Si597    Si       0.08404    0.60802    0.81217    1.000
    Si598    Si       0.06644    0.53124    0.80706    1.000
    N599     N        0.05661    0.57373    0.81248    1.000
    N600     N        0.10311    0.61093    0.85131    1.000
    N601     N        0.06928    0.64696    0.79239    1.000
    N602     N        0.08135    0.71894    0.77628    1.000
    N603     N        0.09345    0.71642    0.84354    1.000
    Si604    Si       0.06210    0.72558    0.81377    1.000
    Si605    Si       0.09376    0.63826    0.75702    1.000
    Si606    Si       0.08734    0.62533    0.89101    1.000
    N607     N        0.08529    0.57303    0.98999    1.000
    N608     N        0.10122    0.66676    0.89232    1.000
    Si609    Si       0.08772    0.70778    0.88650    1.000
    Si610    Si       0.05818    0.68297    0.94630    1.000
    N611     N        0.05270    0.70784    0.91095    1.000
    N612     N        0.09761    0.68648    0.96139    1.000
    N613     N        0.06445    0.63832    0.94620    1.000
    N614     N        0.08901    0.50999    0.95065    1.000
    N615     N        0.08988    0.86260    0.10623    1.000
    Si616    Si       0.07253    0.84675    0.06848    1.000
    Si617    Si       0.07973    0.77783    0.05073    1.000
    N618     N        0.06284    0.80580    0.07830    1.000
    N619     N        0.05966    0.79304    0.01444    1.000
    Si620    Si       0.06014    0.90355    0.03056    1.000
    N621     N        0.09432    0.91675    0.05364    1.000
    N622     N        0.07522    0.95289    0.11692    1.000
    Si623    Si       0.07020    0.97315    0.20109    1.000
    N624     N        0.08303    0.97287    0.99667    1.000
    N625     N        0.06672    0.79262    0.22463    1.000
    N626     N        0.07542    0.82287    0.16258    1.000
    Si627    Si       0.06087    0.85622    0.13795    1.000
    N628     N        0.05963    0.88946    0.16548    1.000
    N629     N        0.05898    0.90096    0.23589    1.000
    Si630    Si       0.05185    0.92484    0.14209    1.000
    N631     N        0.07472    0.00734    0.17222    1.000
    Si632    Si       0.09815    0.92114    0.24441    1.000
    Si633    Si       0.06444    0.99362    0.13288    1.000
    N634     N        0.05491    0.98617    0.23953    1.000
    N635     N        0.10645    0.94989    0.21311    1.000
    N636     N        0.08849    0.83660    0.27257    1.000
    Si637    Si       0.08554    0.84827    0.31617    1.000
    Si638    Si       0.07534    0.79476    0.26570    1.000
    N639     N        0.07610    0.77188    0.34434    1.000
    N640     N        0.05453    0.83558    0.34605    1.000
    N641     N        0.10665    0.98310    0.40322    1.000
    N642     N        0.05695    0.88549    0.30659    1.000
    Si643    Si       0.08593    0.91527    0.31810    1.000
    N644     N        0.08415    0.93655    0.35393    1.000
    N645     N        0.09653    0.93862    0.28241    1.000
    Si646    Si       0.06279    0.81034    0.44707    1.000
    N647     N        0.06014    0.79673    0.40604    1.000
    Si648    Si       0.05605    0.84097    0.39350    1.000
    N649     N        0.10241    0.85369    0.39544    1.000
    N650     N        0.08019    0.97978    0.46875    1.000
    Si651    Si       0.09090    0.89856    0.37855    1.000
    N652     N        0.05225    0.85148    0.43786    1.000
    N653     N        0.06464    0.92310    0.44823    1.000
    Si654    Si       0.06147    0.94455    0.48533    1.000
    Si655    Si       0.10151    0.95518    0.43703    1.000
    N656     N        0.10653    0.81029    0.45389    1.000
    N657     N        0.04847    0.88756    0.38208    1.000
    Si658    Si       0.07374    0.75920    0.38459    1.000
    Si659    Si       0.06533    0.83013    0.56925    1.000
    N660     N        0.07109    0.83600    0.50778    1.000
    Si661    Si       0.05472    0.87756    0.51619    1.000
    N662     N        0.05372    0.87382    0.56000    1.000
    N663     N        0.08009    0.91328    0.51220    1.000
    Si664    Si       0.08184    0.97825    0.59288    1.000
    Si665    Si       0.07098    0.89778    0.59274    1.000
    N666     N        0.06532    0.93890    0.59805    1.000
    N667     N        0.05195    0.00738    0.58383    1.000
    Si668    Si       0.10298    0.89913    0.66687    1.000
    N669     N        0.07346    0.97944    0.68732    1.000
    Si670    Si       0.05443    0.84463    0.64442    1.000
    N671     N        0.07381    0.81219    0.66596    1.000
    Si672    Si       0.10291    0.78098    0.66077    1.000
    N673     N        0.08084    0.84366    0.72249    1.000
    Si674    Si       0.06201    0.80837    0.70793    1.000
    N675     N        0.07618    0.77174    0.72693    1.000
    N676     N        0.07781    0.87953    0.63231    1.000
    N677     N        0.07009    0.90844    0.69558    1.000
    Si678    Si       0.06900    0.88448    0.73172    1.000
    N679     N        0.05061    0.79220    0.55248    1.000
    N680     N        0.10691    0.97094    0.55465    1.000
    Si681    Si       0.09063    0.83407    0.84116    1.000
    N682     N        0.05625    0.83795    0.81416    1.000
    N683     N        0.10069    0.79287    0.84812    1.000
    N684     N        0.07741    0.90469    0.81343    1.000
    Si685    Si       0.07477    0.93712    0.83947    1.000
    N686     N        0.09634    0.00831    0.75361    1.000
    N687     N        0.10829    0.96420    0.84023    1.000
    Si688    Si       0.07804    0.80072    0.97581    1.000
    N689     N        0.07883    0.84727    0.88308    1.000
    Si690    Si       0.07961    0.87071    0.95687    1.000
    N691     N        0.06370    0.83168    0.95125    1.000
    N692     N        0.07568    0.76436    0.95130    1.000
    Si693    Si       0.04891    0.82629    0.90952    1.000
    Si694    Si       0.10150    0.88222    0.89122    1.000
    N695     N        0.05264    0.96725    0.93628    1.000
    Si696    Si       0.05732    0.93286    0.91086    1.000
    N697     N        0.08803    0.92500    0.88061    1.000
    N698     N        0.08296    0.89075    0.99508    1.000
    Si699    Si       0.09121    0.97811    0.95313    1.000
    N700     N        0.05398    0.89593    0.93327    1.000
    Si701    Si       0.14583    0.10185    0.06348    1.000
    N702     N        0.13940    0.07100    0.09372    1.000
    N703     N        0.11675    0.06082    0.00583    1.000
    N704     N        0.15817    0.13210    0.08935    1.000
    Si705    Si       0.13018    0.22192    0.02905    1.000
    Si706    Si       0.14476    0.17383    0.09045    1.000
    N707     N        0.15089    0.20010    0.05860    1.000
    Si708    Si       0.13250    0.23279    0.12041    1.000
    Si709    Si       0.11575    0.05302    0.12598    1.000
    N710     N        0.14996    0.03803    0.14588    1.000
    N711     N        0.14494    0.12367    0.16089    1.000
    N712     N        0.13595    0.24076    0.23346    1.000
    N713     N        0.11922    0.24292    0.16406    1.000
    Si714    Si       0.14884    0.23391    0.19312    1.000
    N715     N        0.15176    0.19480    0.12855    1.000
    Si716    Si       0.11015    0.20491    0.24672    1.000
    N717     N        0.12476    0.06250    0.33118    1.000
    N718     N        0.12659    0.10325    0.27415    1.000
    Si719    Si       0.11618    0.10323    0.31801    1.000
    Si720    Si       0.16120    0.05609    0.35932    1.000
    N721     N        0.13403    0.15206    0.43142    1.000
    Si722    Si       0.14055    0.16930    0.49422    1.000
    N723     N        0.14192    0.13336    0.33262    1.000
    N724     N        0.14583    0.18348    0.26343    1.000
    N725     N        0.14083    0.20691    0.33756    1.000
    Si726    Si       0.13615    0.16789    0.35823    1.000
    Si727    Si       0.15844    0.23740    0.36683    1.000
    Si728    Si       0.16565    0.10247    0.25515    1.000
    Si729    Si       0.15553    0.06208    0.43310    1.000
    N730     N        0.13880    0.04701    0.39636    1.000
    Si731    Si       0.15563    0.12043    0.45004    1.000
    N732     N        0.12891    0.08578    0.45992    1.000
    N733     N        0.16299    0.12758    0.49264    1.000
    Si734    Si       0.11574    0.24243    0.42841    1.000
    N735     N        0.14907    0.22183    0.40728    1.000
    Si736    Si       0.12088    0.07556    0.56639    1.000
    N737     N        0.15953    0.06015    0.52090    1.000
    Si738    Si       0.13694    0.09199    0.50281    1.000
    N739     N        0.16134    0.08117    0.58201    1.000
    N740     N        0.11281    0.20812    0.59406    1.000
    N741     N        0.14228    0.19317    0.53014    1.000
    Si742    Si       0.14755    0.18847    0.61465    1.000
    Si743    Si       0.11096    0.25562    0.50029    1.000
    N744     N        0.14460    0.14255    0.61711    1.000
    N745     N        0.16523    0.02969    0.63902    1.000
    N746     N        0.12064    0.11079    0.67263    1.000
    Si747    Si       0.14117    0.03298    0.67635    1.000
    Si748    Si       0.16347    0.10683    0.67814    1.000
    Si749    Si       0.13799    0.20005    0.73542    1.000
    N750     N        0.11939    0.18706    0.69865    1.000
    N751     N        0.15367    0.21556    0.64966    1.000
    N752     N        0.15253    0.23918    0.73039    1.000
    Si753    Si       0.11729    0.22114    0.67126    1.000
    N754     N        0.16425    0.01297    0.57173    1.000
    Si755    Si       0.10874    0.12216    0.63204    1.000
    N756     N        0.16728    0.03100    0.75394    1.000
    N757     N        0.12521    0.07703    0.83382    1.000
    N758     N        0.14195    0.08872    0.76675    1.000
    Si759    Si       0.14798    0.05909    0.80025    1.000
    N760     N        0.13842    0.01756    0.80844    1.000
    Si761    Si       0.14648    0.09771    0.86506    1.000
    N762     N        0.16524    0.23922    0.93145    1.000
    N763     N        0.14242    0.18007    0.81553    1.000
    Si764    Si       0.14060    0.22000    0.83259    1.000
    Si765    Si       0.11424    0.16786    0.78662    1.000
    N766     N        0.16016    0.24840    0.80751    1.000
    N767     N        0.10644    0.20601    0.76711    1.000
    N768     N        0.14922    0.21504    0.99026    1.000
    Si769    Si       0.12867    0.03260    0.97468    1.000
    N770     N        0.12918    0.11770    0.96788    1.000
    N771     N        0.12058    0.11426    0.89633    1.000
    N772     N        0.16175    0.05860    0.95952    1.000
    Si773    Si       0.14959    0.08945    0.99340    1.000
    Si774    Si       0.14555    0.12843    0.92857    1.000
    N775     N        0.15354    0.21542    0.87331    1.000
    N776     N        0.14411    0.17361    0.93063    1.000
    Si777    Si       0.12248    0.19677    0.96268    1.000
    Si778    Si       0.14336    0.25367    0.89602    1.000
    N779     N        0.12771    0.15248    0.74847    1.000
    N780     N        0.13170    0.33657    0.01649    1.000
    Si781    Si       0.15181    0.29820    0.01855    1.000
    N782     N        0.14184    0.36546    0.08531    1.000
    N783     N        0.12201    0.26767    0.02775    1.000
    Si784    Si       0.15883    0.35051    0.04898    1.000
    N785     N        0.11944    0.45853    0.04564    1.000
    Si786    Si       0.13347    0.49992    0.04232    1.000
    N787     N        0.16209    0.45338    0.11950    1.000
    Si788    Si       0.11888    0.44823    0.13097    1.000
    Si789    Si       0.13904    0.35231    0.18885    1.000
    N790     N        0.11982    0.35721    0.15042    1.000
    N791     N        0.12767    0.30774    0.19888    1.000
    N792     N        0.11389    0.43540    0.17226    1.000
    Si793    Si       0.14213    0.38241    0.12454    1.000
    N794     N        0.14695    0.38788    0.21219    1.000
    N795     N        0.10881    0.43717    0.23738    1.000
    Si796    Si       0.13971    0.43120    0.20823    1.000
    Si797    Si       0.16564    0.49506    0.10469    1.000
    N798     N        0.15095    0.51365    0.14099    1.000
    N799     N        0.13978    0.34294    0.33475    1.000
    N800     N        0.13010    0.28375    0.29074    1.000
    Si801    Si       0.15219    0.30237    0.32371    1.000
    N802     N        0.14896    0.27867    0.36345    1.000
    Si803    Si       0.11060    0.36827    0.31396    1.000
    N804     N        0.12128    0.37779    0.27347    1.000
    Si805    Si       0.15848    0.26212    0.26528    1.000
    N806     N        0.13543    0.46304    0.38149    1.000
    Si807    Si       0.14197    0.43063    0.35099    1.000
    N808     N        0.11028    0.40783    0.33167    1.000
    Si809    Si       0.15912    0.38945    0.25378    1.000
    N810     N        0.11331    0.50348    0.43293    1.000
    N811     N        0.16430    0.39623    0.36861    1.000
    Si812    Si       0.14550    0.29725    0.47511    1.000
    N813     N        0.13381    0.28152    0.43636    1.000
    Si814    Si       0.13367    0.30122    0.39828    1.000
    N815     N        0.15781    0.33624    0.40625    1.000
    Si816    Si       0.12120    0.42284    0.46128    1.000
    N817     N        0.13526    0.38598    0.44683    1.000
    N818     N        0.15862    0.43983    0.47780    1.000
    Si819    Si       0.16219    0.49521    0.30955    1.000
    N820     N        0.16284    0.45207    0.32007    1.000
    N821     N        0.10787    0.29922    0.49619    1.000
    N822     N        0.15521    0.25954    0.49886    1.000
    Si823    Si       0.15546    0.31280    0.57916    1.000
    Si824    Si       0.13917    0.37300    0.55013    1.000
    N825     N        0.11907    0.29389    0.56784    1.000
    N826     N        0.16565    0.40561    0.53791    1.000
    N827     N        0.11956    0.38151    0.58839    1.000
    Si828    Si       0.15676    0.48984    0.57841    1.000
    N829     N        0.12519    0.48898    0.60817    1.000
    N830     N        0.14541    0.47699    0.53810    1.000
    Si831    Si       0.14353    0.43825    0.51825    1.000
    N832     N        0.16604    0.30011    0.74231    1.000
    N833     N        0.15035    0.32901    0.61868    1.000
    Si834    Si       0.13953    0.37311    0.62560    1.000
    N835     N        0.11632    0.36942    0.66219    1.000
    Si836    Si       0.13248    0.35444    0.69889    1.000
    Si837    Si       0.12658    0.27844    0.72156    1.000
    N838     N        0.11267    0.31632    0.70613    1.000
    N839     N        0.12766    0.38961    0.72292    1.000
    N840     N        0.13012    0.43094    0.64519    1.000
    Si841    Si       0.11742    0.41625    0.68844    1.000
    N842     N        0.13238    0.45331    0.70587    1.000
    Si843    Si       0.11252    0.48697    0.69211    1.000
    Si844    Si       0.14973    0.32975    0.77232    1.000
    N845     N        0.13844    0.37551    0.83336    1.000
    N846     N        0.10930    0.27617    0.76421    1.000
    N847     N        0.10862    0.38779    0.89348    1.000
    N848     N        0.11795    0.44107    0.84529    1.000
    Si849    Si       0.12071    0.43343    0.80201    1.000
    Si850    Si       0.13366    0.40597    0.86347    1.000
    Si851    Si       0.15755    0.40378    0.75370    1.000
    N852     N        0.11213    0.47177    0.78440    1.000
    N853     N        0.16296    0.42694    0.79105    1.000
    Si854    Si       0.12184    0.50494    0.81106    1.000
    N855     N        0.15956    0.28505    0.87224    1.000
    N856     N        0.14029    0.32058    0.92571    1.000
    Si857    Si       0.11497    0.40145    0.93641    1.000
    Si858    Si       0.16299    0.43494    0.96091    1.000
    Si859    Si       0.11086    0.47572    0.93502    1.000
    N860     N        0.15885    0.40847    0.92741    1.000
    N861     N        0.12986    0.41951    0.98390    1.000
    N862     N        0.15037    0.47567    0.95511    1.000
    N863     N        0.11729    0.48866    0.89336    1.000
    N864     N        0.10596    0.33687    0.78222    1.000
    N865     N        0.12668    0.57966    0.10532    1.000
    N866     N        0.13488    0.57785    0.03842    1.000
    N867     N        0.13768    0.51955    0.08151    1.000
    Si868    Si       0.15231    0.56255    0.07420    1.000
    N869     N        0.12125    0.63326    0.99605    1.000
    Si870    Si       0.14419    0.65393    0.02842    1.000
    N871     N        0.12631    0.68030    0.05966    1.000
    N872     N        0.13209    0.74130    0.10244    1.000
    Si873    Si       0.14983    0.70125    0.09096    1.000
    N874     N        0.11115    0.72974    0.01145    1.000
    N875     N        0.12066    0.74462    0.22315    1.000
    Si876    Si       0.11042    0.52439    0.11773    1.000
    Si877    Si       0.12053    0.55166    0.18836    1.000
    N878     N        0.14134    0.58653    0.17303    1.000
    Si879    Si       0.13418    0.60881    0.13769    1.000
    N880     N        0.15664    0.53024    0.20607    1.000
    Si881    Si       0.10679    0.74907    0.13790    1.000
    N882     N        0.13121    0.62781    0.24769    1.000
    Si883    Si       0.14554    0.68038    0.16150    1.000
    N884     N        0.11511    0.71314    0.16444    1.000
    N885     N        0.11851    0.64812    0.14665    1.000
    Si886    Si       0.12937    0.67075    0.23782    1.000
    N887     N        0.15851    0.67419    0.20338    1.000
    Si888    Si       0.13877    0.56056    0.29369    1.000
    N889     N        0.12932    0.52108    0.30642    1.000
    Si890    Si       0.15671    0.62402    0.32279    1.000
    N891     N        0.15669    0.58130    0.32870    1.000
    N892     N        0.16343    0.56920    0.26074    1.000
    Si893    Si       0.13538    0.74089    0.26565    1.000
    N894     N        0.13283    0.69818    0.27124    1.000
    N895     N        0.13381    0.70447    0.34331    1.000
    N896     N        0.11768    0.64273    0.32048    1.000
    Si897    Si       0.11607    0.68610    0.30896    1.000
    Si898    Si       0.15004    0.73710    0.37076    1.000
    N899     N        0.13076    0.54676    0.38096    1.000
    Si900    Si       0.12667    0.57054    0.47562    1.000
    N901     N        0.14669    0.56940    0.43792    1.000
    Si902    Si       0.14548    0.53048    0.41819    1.000
    N903     N        0.13409    0.60788    0.49456    1.000
    Si904    Si       0.15938    0.63581    0.47403    1.000
    Si905    Si       0.15840    0.69935    0.44285    1.000
    N906     N        0.15232    0.71528    0.48380    1.000
    N907     N        0.13658    0.66262    0.44865    1.000
    Si908    Si       0.14341    0.67553    0.37316    1.000
    Si909    Si       0.11226    0.73977    0.48932    1.000
    N910     N        0.15907    0.70420    0.40144    1.000
    N911     N        0.11774    0.75842    0.39259    1.000
    N912     N        0.14756    0.60044    0.56667    1.000
    Si913    Si       0.14374    0.55805    0.58014    1.000
    Si914    Si       0.12132    0.61774    0.53588    1.000
    N915     N        0.11316    0.53665    0.55529    1.000
    Si916    Si       0.12914    0.51326    0.52225    1.000
    N917     N        0.13865    0.64625    0.62420    1.000
    Si918    Si       0.16142    0.72450    0.70531    1.000
    Si919    Si       0.13448    0.75070    0.54795    1.000
    Si920    Si       0.14249    0.68855    0.52153    1.000
    N921     N        0.16039    0.71398    0.55241    1.000
    N922     N        0.11489    0.65931    0.54033    1.000
    N923     N        0.13252    0.55137    0.62129    1.000
    N924     N        0.13748    0.51698    0.67324    1.000
    Si925    Si       0.16151    0.54779    0.65390    1.000
    N926     N        0.13603    0.63194    0.68879    1.000
    Si927    Si       0.10836    0.51987    0.63729    1.000
    N928     N        0.13689    0.70501    0.67572    1.000
    Si929    Si       0.15514    0.65523    0.72146    1.000
    N930     N        0.13533    0.73515    0.73855    1.000
    Si931    Si       0.15918    0.68023    0.64596    1.000
    N932     N        0.16264    0.55789    0.74847    1.000
    N933     N        0.15185    0.54005    0.49757    1.000
    Si934    Si       0.14289    0.59400    0.86101    1.000
    Si935    Si       0.12059    0.56766    0.75844    1.000
    N936     N        0.15503    0.51104    0.83751    1.000
    N937     N        0.11225    0.60496    0.77878    1.000
    N938     N        0.10585    0.53869    0.78701    1.000
    Si939    Si       0.11215    0.64488    0.95253    1.000
    Si940    Si       0.12208    0.70493    0.76886    1.000
    Si941    Si       0.13638    0.72113    0.84013    1.000
    N942     N        0.15308    0.70713    0.80100    1.000
    N943     N        0.15844    0.69251    0.86205    1.000
    N944     N        0.12398    0.66756    0.74801    1.000
    Si945    Si       0.10754    0.53790    0.97749    1.000
    Si946    Si       0.14966    0.51419    0.88202    1.000
    N947     N        0.14066    0.55895    0.88891    1.000
    N948     N        0.14596    0.54532    0.95914    1.000
    N949     N        0.11753    0.61021    0.92189    1.000
    Si950    Si       0.14818    0.57835    0.92746    1.000
    N951     N        0.16523    0.62697    0.87480    1.000
    Si952    Si       0.14449    0.66400    0.89226    1.000
    N953     N        0.14577    0.74152    0.96183    1.000
    N954     N        0.11193    0.74071    0.90104    1.000
    Si955    Si       0.13190    0.70466    0.97957    1.000
    N956     N        0.15164    0.66728    0.93578    1.000
    Si957    Si       0.14403    0.82551    0.05007    1.000
    N958     N        0.12524    0.78397    0.04678    1.000
    N959     N        0.15743    0.85267    0.08317    1.000
    Si960    Si       0.13134    0.87323    0.11014    1.000
    Si961    Si       0.13669    0.76796    0.00487    1.000
    Si962    Si       0.15713    0.76055    0.07327    1.000
    N963     N        0.10837    0.85015    0.04032    1.000
    Si964    Si       0.11821    0.89392    0.02188    1.000
    N965     N        0.12930    0.97377    0.06384    1.000
    N966     N        0.13504    0.91770    0.11035    1.000
    Si967    Si       0.12198    0.96799    0.02028    1.000
    N968     N        0.14310    0.93191    0.01048    1.000
    N969     N        0.14469    0.99793    0.99533    1.000
    Si970    Si       0.11778    0.82353    0.16944    1.000
    Si971    Si       0.13757    0.77986    0.20425    1.000
    N972     N        0.13923    0.85608    0.15015    1.000
    N973     N        0.12696    0.82277    0.21274    1.000
    N974     N        0.12070    0.78114    0.16377    1.000
    Si975    Si       0.14657    0.96026    0.20429    1.000
    N976     N        0.15251    0.96667    0.16215    1.000
    Si977    Si       0.16523    0.93937    0.13367    1.000
    Si978    Si       0.10775    0.94352    0.08815    1.000
    Si979    Si       0.12500    0.84770    0.24951    1.000
    N980     N        0.12342    0.82075    0.33000    1.000
    Si981    Si       0.11359    0.77761    0.32502    1.000
    N982     N        0.16121    0.83417    0.27034    1.000
    Si983    Si       0.13635    0.84658    0.36317    1.000
    Si984    Si       0.16401    0.82676    0.31117    1.000
    N985     N        0.15410    0.76272    0.33328    1.000
    N986     N        0.11769    0.91761    0.40570    1.000
    N987     N        0.10893    0.88270    0.34123    1.000
    N988     N        0.16143    0.94098    0.29519    1.000
    Si989    Si       0.12888    0.97013    0.29438    1.000
    N990     N        0.11708    0.98987    0.33186    1.000
    Si991    Si       0.11681    0.96154    0.36619    1.000
    N992     N        0.12684    0.00370    0.26693    1.000
    N993     N        0.16001    0.95659    0.36550    1.000
    Si994    Si       0.16567    0.91264    0.26116    1.000
    N995     N        0.12995    0.89200    0.24898    1.000
    N996     N        0.15953    0.76922    0.44487    1.000
    Si997    Si       0.12503    0.83979    0.42719    1.000
    Si998    Si       0.11869    0.77261    0.43442    1.000
    N999     N        0.15501    0.82216    0.39967    1.000
    N1000    N        0.14452    0.86951    0.45390    1.000
    N1001    N        0.10715    0.76928    0.28319    1.000
    Si1002   Si       0.16033    0.95781    0.49187    1.000
    N1003    N        0.13680    0.94506    0.45815    1.000
    Si1004   Si       0.14687    0.90920    0.43597    1.000
    N1005    N        0.13699    0.84746    0.51850    1.000
    Si1006   Si       0.12984    0.79179    0.59082    1.000
    Si1007   Si       0.13481    0.86189    0.56029    1.000
    N1008    N        0.13192    0.77730    0.51074    1.000
    N1009    N        0.16487    0.77715    0.56987    1.000
    Si1010   Si       0.10940    0.81719    0.50134    1.000
    N1011    N        0.10911    0.82897    0.57659    1.000
    N1012    N        0.14978    0.92905    0.52413    1.000
    N1013    N        0.14876    0.99589    0.50456    1.000
    Si1014   Si       0.15630    0.99641    0.61109    1.000
    Si1015   Si       0.12936    0.00539    0.54291    1.000
    N1016    N        0.11079    0.89848    0.57169    1.000
    Si1017   Si       0.11014    0.92958    0.54137    1.000
    Si1018   Si       0.10823    0.97258    0.66159    1.000
    Si1019   Si       0.12367    0.85795    0.72845    1.000
    N1020    N        0.13434    0.87239    0.68696    1.000
    Si1021   Si       0.11848    0.77351    0.73394    1.000
    N1022    N        0.13154    0.78614    0.69589    1.000
    N1023    N        0.13516    0.78906    0.63342    1.000
    Si1024   Si       0.16649    0.78869    0.66739    1.000
    N1025    N        0.11339    0.98892    0.62055    1.000
    N1026    N        0.14037    0.99257    0.68784    1.000
    N1027    N        0.12523    0.93322    0.65492    1.000
    Si1028   Si       0.14720    0.82421    0.79025    1.000
    N1029    N        0.11946    0.85096    0.81302    1.000
    N1030    N        0.12358    0.79384    0.77135    1.000
    N1031    N        0.15679    0.84807    0.75516    1.000
    N1032    N        0.15663    0.76005    0.84967    1.000
    Si1033   Si       0.11637    0.89055    0.79678    1.000
    N1034    N        0.15139    0.91351    0.81194    1.000
    N1035    N        0.15673    0.96643    0.75555    1.000
    Si1036   Si       0.13883    0.00253    0.76835    1.000
    Si1037   Si       0.12077    0.95698    0.88448    1.000
    Si1038   Si       0.12634    0.77255    0.87705    1.000
    Si1039   Si       0.15593    0.83437    0.98007    1.000
    N1040    N        0.12168    0.80054    0.97821    1.000
    N1041    N        0.14248    0.79406    0.91153    1.000
    Si1042   Si       0.15607    0.87934    0.92274    1.000
    N1043    N        0.11470    0.87653    0.93323    1.000
    N1044    N        0.14799    0.87467    0.99631    1.000
    Si1045   Si       0.11815    0.76581    0.93823    1.000
    N1046    N        0.16480    0.94629    0.87606    1.000
    N1047    N        0.14377    0.88193    0.87998    1.000
    N1048    N        0.13586    0.00181    0.87982    1.000
    N1049    N        0.11840    0.95790    0.92800    1.000
    Si1050   Si       0.11411    0.00648    0.84296    1.000
    N1051    N        0.10746    0.89189    0.75299    1.000
    Si1052   Si       0.21174    0.11940    0.03298    1.000
    Si1053   Si       0.19680    0.12696    0.10892    1.000
    Si1054   Si       0.17578    0.05419    0.11276    1.000
    N1055    N        0.18876    0.01863    0.09093    1.000
    N1056    N        0.17184    0.10134    0.02688    1.000
    N1057    N        0.20451    0.08393    0.12042    1.000
    N1058    N        0.22119    0.13441    0.07311    1.000
    N1059    N        0.22051    0.15325    0.00662    1.000
    N1060    N        0.21288    0.09006    0.18425    1.000
    Si1061   Si       0.18350    0.12213    0.17952    1.000
    N1062    N        0.17732    0.13117    0.22227    1.000
    N1063    N        0.18069    0.06204    0.24390    1.000
    Si1064   Si       0.21912    0.06831    0.22319    1.000
    Si1065   Si       0.17415    0.17334    0.23254    1.000
    Si1066   Si       0.18613    0.18854    0.15504    1.000
    N1067    N        0.21602    0.22113    0.14618    1.000
    N1068    N        0.20437    0.14874    0.14811    1.000
    N1069    N        0.16994    0.19441    0.19437    1.000
    N1070    N        0.18891    0.09116    0.35595    1.000
    N1071    N        0.19612    0.11692    0.28516    1.000
    N1072    N        0.18607    0.02223    0.35231    1.000
    Si1073   Si       0.18444    0.12552    0.32804    1.000
    N1074    N        0.16891    0.19040    0.46754    1.000
    N1075    N        0.21987    0.23733    0.47613    1.000
    N1076    N        0.18033    0.23494    0.29145    1.000
    N1077    N        0.19309    0.17004    0.32229    1.000
    N1078    N        0.20236    0.23284    0.35477    1.000
    Si1079   Si       0.20542    0.18742    0.35913    1.000
    N1080    N        0.21135    0.17539    0.25089    1.000
    Si1081   Si       0.16449    0.19643    0.30173    1.000
    Si1082   Si       0.21181    0.25566    0.31386    1.000
    N1083    N        0.18320    0.03586    0.45426    1.000
    Si1084   Si       0.21006    0.09271    0.39536    1.000
    N1085    N        0.17943    0.09816    0.42373    1.000
    Si1086   Si       0.21812    0.02319    0.43263    1.000
    Si1087   Si       0.17637    0.02781    0.49604    1.000
    Si1088   Si       0.21257    0.19623    0.46691    1.000
    N1089    N        0.17383    0.16659    0.38099    1.000
    N1090    N        0.21529    0.19058    0.42497    1.000
    Si1091   Si       0.16510    0.02100    0.25276    1.000
    Si1092   Si       0.16633    0.18547    0.42295    1.000
    Si1093   Si       0.21356    0.01009    0.32106    1.000
    N1094    N        0.19242    0.00832    0.28409    1.000
    Si1095   Si       0.18555    0.04886    0.55745    1.000
    Si1096   Si       0.17567    0.11281    0.60866    1.000
    N1097    N        0.21155    0.02463    0.52193    1.000
    N1098    N        0.21552    0.12508    0.59165    1.000
    N1099    N        0.22452    0.10119    0.52611    1.000
    Si1100   Si       0.20374    0.13331    0.50849    1.000
    N1101    N        0.18314    0.18915    0.59153    1.000
    N1102    N        0.20856    0.23097    0.54602    1.000
    N1103    N        0.20553    0.17057    0.53159    1.000
    Si1104   Si       0.17993    0.19819    0.54989    1.000
    Si1105   Si       0.19650    0.25405    0.50885    1.000
    Si1106   Si       0.21448    0.25384    0.58711    1.000
    Si1107   Si       0.22053    0.16807    0.59845    1.000
    N1108    N        0.18087    0.12088    0.71462    1.000
    N1109    N        0.19076    0.09873    0.64633    1.000
    Si1110   Si       0.19474    0.05525    0.65751    1.000
    Si1111   Si       0.16717    0.07388    0.73555    1.000
    Si1112   Si       0.18913    0.24040    0.66272    1.000
    N1113    N        0.16745    0.06291    0.69283    1.000
    Si1114   Si       0.21213    0.02789    0.74738    1.000
    N1115    N        0.21295    0.21628    0.69029    1.000
    Si1116   Si       0.20977    0.21649    0.73397    1.000
    N1117    N        0.18130    0.18622    0.74558    1.000
    N1118    N        0.21846    0.24361    0.63055    1.000
    Si1119   Si       0.22256    0.10942    0.71978    1.000
    N1120    N        0.18774    0.06638    0.81603    1.000
    Si1121   Si       0.20198    0.05120    0.85328    1.000
    Si1122   Si       0.20622    0.09209    0.78746    1.000
    N1123    N        0.17493    0.13247    0.85784    1.000
    N1124    N        0.18814    0.13181    0.78625    1.000
    N1125    N        0.21193    0.07438    0.74634    1.000
    N1126    N        0.20763    0.18057    0.90428    1.000
    N1127    N        0.21703    0.17500    0.82128    1.000
    Si1128   Si       0.17686    0.15597    0.82175    1.000
    N1129    N        0.21092    0.25227    0.76054    1.000
    Si1130   Si       0.17118    0.14415    0.74953    1.000
    N1131    N        0.17300    0.06619    0.88178    1.000
    N1132    N        0.21530    0.01853    0.98321    1.000
    Si1133   Si       0.18423    0.07204    0.92567    1.000
    N1134    N        0.18512    0.11527    0.92236    1.000
    N1135    N        0.22277    0.05507    0.92588    1.000
    Si1136   Si       0.17029    0.20062    0.91016    1.000
    Si1137   Si       0.17936    0.24370    0.97404    1.000
    N1138    N        0.21828    0.22921    0.99248    1.000
    Si1139   Si       0.20447    0.13866    0.89072    1.000
    Si1140   Si       0.19316    0.28350    0.08146    1.000
    N1141    N        0.17240    0.30964    0.05621    1.000
    N1142    N        0.18013    0.38308    0.03088    1.000
    N1143    N        0.18253    0.39256    0.13929    1.000
    N1144    N        0.20543    0.49926    0.08855    1.000
    N1145    N        0.21226    0.42739    0.08434    1.000
    Si1146   Si       0.21387    0.39535    0.05591    1.000
    Si1147   Si       0.19593    0.25906    0.14114    1.000
    N1148    N        0.21672    0.50685    0.17165    1.000
    Si1149   Si       0.19181    0.46336    0.23950    1.000
    N1150    N        0.21754    0.28863    0.12002    1.000
    Si1151   Si       0.20878    0.36821    0.16463    1.000
    N1152    N        0.18368    0.33744    0.18842    1.000
    Si1153   Si       0.20834    0.35109    0.22238    1.000
    Si1154   Si       0.17273    0.29792    0.20599    1.000
    N1155    N        0.17961    0.26362    0.18202    1.000
    N1156    N        0.16613    0.25779    0.10622    1.000
    N1157    N        0.16708    0.46439    0.20208    1.000
    Si1158   Si       0.17186    0.50225    0.17701    1.000
    Si1159   Si       0.19806    0.43075    0.12719    1.000
    N1160    N        0.19390    0.29590    0.31247    1.000
    N1161    N        0.20841    0.34645    0.36038    1.000
    N1162    N        0.19124    0.36239    0.26060    1.000
    Si1163   Si       0.21896    0.30665    0.27070    1.000
    N1164    N        0.22253    0.45233    0.43945    1.000
    N1165    N        0.17826    0.49680    0.26567    1.000
    Si1166   Si       0.20620    0.40383    0.36162    1.000
    Si1167   Si       0.19920    0.43883    0.30003    1.000
    N1168    N        0.17999    0.42792    0.26109    1.000
    N1169    N        0.21154    0.40170    0.31910    1.000
    N1170    N        0.17111    0.33107    0.47794    1.000
    Si1171   Si       0.16724    0.35932    0.44314    1.000
    N1172    N        0.18180    0.50532    0.41558    1.000
    Si1173   Si       0.21428    0.49661    0.44207    1.000
    Si1174   Si       0.19828    0.42898    0.46919    1.000
    Si1175   Si       0.17583    0.48016    0.38033    1.000
    N1176    N        0.20154    0.44620    0.37641    1.000
    N1177    N        0.20448    0.38596    0.44815    1.000
    N1178    N        0.21152    0.50257    0.48578    1.000
    Si1179   Si       0.16690    0.35295    0.36773    1.000
    N1180    N        0.18555    0.28898    0.24506    1.000
    Si1181   Si       0.19439    0.33447    0.51436    1.000
    N1182    N        0.21207    0.29405    0.51948    1.000
    N1183    N        0.18847    0.28612    0.59254    1.000
    N1184    N        0.22381    0.36665    0.52216    1.000
    N1185    N        0.18290    0.45853    0.59944    1.000
    Si1186   Si       0.20877    0.40642    0.53624    1.000
    N1187    N        0.22046    0.43685    0.50681    1.000
    Si1188   Si       0.22491    0.46099    0.58789    1.000
    Si1189   Si       0.17528    0.46112    0.70871    1.000
    N1190    N        0.17359    0.34652    0.69012    1.000
    Si1191   Si       0.18502    0.30409    0.63298    1.000
    N1192    N        0.21754    0.33333    0.64107    1.000
    Si1193   Si       0.18861    0.30887    0.70580    1.000
    Si1194   Si       0.19660    0.36839    0.65860    1.000
    N1195    N        0.17781    0.28373    0.67047    1.000
    N1196    N        0.18745    0.42367    0.72987    1.000
    N1197    N        0.19791    0.49025    0.73295    1.000
    Si1198   Si       0.17205    0.43713    0.63615    1.000
    Si1199   Si       0.21702    0.49430    0.65191    1.000
    N1200    N        0.19026    0.46249    0.66767    1.000
    N1201    N        0.17794    0.39356    0.62924    1.000
    N1202    N        0.16613    0.33843    0.54816    1.000
    Si1203   Si       0.17356    0.28107    0.83233    1.000
    N1204    N        0.17419    0.36444    0.76150    1.000
    Si1205   Si       0.17746    0.35719    0.83370    1.000
    Si1206   Si       0.21458    0.36525    0.77481    1.000
    N1207    N        0.21727    0.28333    0.83460    1.000
    N1208    N        0.16759    0.31955    0.81079    1.000
    Si1209   Si       0.16794    0.26053    0.76565    1.000
    N1210    N        0.20855    0.38416    0.81510    1.000
    Si1211   Si       0.19203    0.42658    0.82350    1.000
    N1212    N        0.17793    0.41773    0.86394    1.000
    Si1213   Si       0.20599    0.31014    0.96412    1.000
    N1214    N        0.17755    0.28572    0.98656    1.000
    Si1215   Si       0.17323    0.31768    0.89822    1.000
    N1216    N        0.18408    0.35412    0.87740    1.000
    N1217    N        0.21371    0.35215    0.96913    1.000
    N1218    N        0.20549    0.30113    0.92153    1.000
    Si1219   Si       0.18888    0.39160    0.89775    1.000
    Si1220   Si       0.20198    0.38790    0.99378    1.000
    N1221    N        0.20256    0.42833    0.97746    1.000
    N1222    N        0.22166    0.46017    0.81796    1.000
    N1223    N        0.22725    0.39540    0.91511    1.000
    N1224    N        0.19320    0.57470    0.07913    1.000
    Si1225   Si       0.20483    0.61516    0.06817    1.000
    Si1226   Si       0.22198    0.54069    0.08280    1.000
    N1227    N        0.18178    0.64042    0.04381    1.000
    Si1228   Si       0.20832    0.72829    0.03552    1.000
    N1229    N        0.17822    0.72141    0.06541    1.000
    Si1230   Si       0.20449    0.66311    0.01251    1.000
    N1231    N        0.22198    0.54611    0.23769    1.000
    N1232    N        0.19301    0.61631    0.21675    1.000
    N1233    N        0.17871    0.61740    0.13678    1.000
    Si1234   Si       0.18367    0.59788    0.17636    1.000
    N1235    N        0.21906    0.57492    0.17629    1.000
    Si1236   Si       0.18063    0.53420    0.24250    1.000
    N1237    N        0.16956    0.68191    0.12435    1.000
    Si1238   Si       0.19851    0.65939    0.20789    1.000
    Si1239   Si       0.20238    0.65342    0.13076    1.000
    N1240    N        0.21914    0.66422    0.16964    1.000
    Si1241   Si       0.21141    0.50927    0.01751    1.000
    N1242    N        0.16458    0.68298    0.99969    1.000
    N1243    N        0.16943    0.50828    0.02434    1.000
    Si1244   Si       0.16873    0.55176    0.35801    1.000
    N1245    N        0.18259    0.50986    0.34804    1.000
    Si1246   Si       0.16996    0.61001    0.25267    1.000
    N1247    N        0.22392    0.53384    0.30179    1.000
    N1248    N        0.18487    0.63266    0.28978    1.000
    Si1249   Si       0.22201    0.65549    0.28396    1.000
    Si1250   Si       0.21494    0.65425    0.36081    1.000
    N1251    N        0.17307    0.64806    0.35673    1.000
    N1252    N        0.17770    0.75377    0.26768    1.000
    N1253    N        0.22280    0.67515    0.39459    1.000
    N1254    N        0.19560    0.57077    0.38825    1.000
    N1255    N        0.20858    0.56312    0.46114    1.000
    Si1256   Si       0.18789    0.58511    0.42921    1.000
    N1257    N        0.18869    0.62613    0.44160    1.000
    N1258    N        0.19203    0.75394    0.38687    1.000
    Si1259   Si       0.21069    0.71586    0.40442    1.000
    Si1260   Si       0.19753    0.70937    0.49176    1.000
    N1261    N        0.20250    0.69937    0.44821    1.000
    Si1262   Si       0.21847    0.65886    0.43460    1.000
    Si1263   Si       0.19457    0.54187    0.49564    1.000
    N1264    N        0.22277    0.74163    0.32794    1.000
    N1265    N        0.21603    0.67536    0.24423    1.000
    N1266    N        0.17420    0.52941    0.56990    1.000
    Si1267   Si       0.22098    0.53340    0.56198    1.000
    N1268    N        0.22445    0.55703    0.52525    1.000
    Si1269   Si       0.16844    0.61571    0.65912    1.000
    N1270    N        0.17350    0.65969    0.50674    1.000
    Si1271   Si       0.18880    0.70013    0.58264    1.000
    Si1272   Si       0.20516    0.65287    0.53357    1.000
    N1273    N        0.19078    0.65639    0.57619    1.000
    N1274    N        0.22176    0.72804    0.57429    1.000
    N1275    N        0.20361    0.75235    0.50093    1.000
    N1276    N        0.18614    0.59548    0.61957    1.000
    Si1277   Si       0.21865    0.56645    0.62603    1.000
    N1278    N        0.18186    0.62348    0.73486    1.000
    N1279    N        0.19872    0.53074    0.63786    1.000
    Si1280   Si       0.18807    0.58258    0.72035    1.000
    N1281    N        0.17325    0.57766    0.68140    1.000
    N1282    N        0.18692    0.75381    0.68190    1.000
    N1283    N        0.17931    0.71068    0.62233    1.000
    N1284    N        0.18152    0.68855    0.71664    1.000
    N1285    N        0.19297    0.65475    0.65865    1.000
    Si1286   Si       0.20698    0.73898    0.64404    1.000
    N1287    N        0.22467    0.55682    0.72997    1.000
    N1288    N        0.22714    0.68712    0.51669    1.000
    Si1289   Si       0.16667    0.62597    0.59613    1.000
    Si1290   Si       0.18794    0.54007    0.83055    1.000
    Si1291   Si       0.19833    0.61217    0.82388    1.000
    N1292    N        0.20789    0.52866    0.79429    1.000
    N1293    N        0.17265    0.57962    0.83492    1.000
    N1294    N        0.21756    0.60127    0.78561    1.000
    Si1295   Si       0.19625    0.52857    0.75344    1.000
    N1296    N        0.22213    0.53977    0.85777    1.000
    Si1297   Si       0.20234    0.63803    0.76936    1.000
    N1298    N        0.17918    0.64792    0.80591    1.000
    Si1299   Si       0.18419    0.68568    0.82647    1.000
    N1300    N        0.20948    0.51293    0.97454    1.000
    Si1301   Si       0.20612    0.62157    0.89370    1.000
    N1302    N        0.18859    0.59470    0.92863    1.000
    Si1303   Si       0.17331    0.51120    0.95175    1.000
    N1304    N        0.18348    0.50966    0.90942    1.000
    Si1305   Si       0.22453    0.51348    0.89392    1.000
    Si1306   Si       0.22172    0.60326    0.95403    1.000
    N1307    N        0.20787    0.71482    0.95500    1.000
    N1308    N        0.21469    0.66172    0.91301    1.000
    Si1309   Si       0.18781    0.74997    0.96726    1.000
    N1310    N        0.21118    0.64117    0.97521    1.000
    Si1311   Si       0.19295    0.67187    0.95009    1.000
    Si1312   Si       0.19564    0.83359    0.09129    1.000
    Si1313   Si       0.20500    0.79364    0.03208    1.000
    N1314    N        0.18417    0.79495    0.07409    1.000
    N1315    N        0.17208    0.81974    0.01733    1.000
    N1316    N        0.22397    0.85192    0.06434    1.000
    N1317    N        0.19718    0.98346    0.03834    1.000
    N1318    N        0.18845    0.95915    0.10266    1.000
    Si1319   Si       0.21393    0.99122    0.11631    1.000
    N1320    N        0.21205    0.89376    0.00655    1.000
    Si1321   Si       0.17207    0.98282    0.07032    1.000
    Si1322   Si       0.18679    0.98787    0.99691    1.000
    N1323    N        0.18708    0.86817    0.20505    1.000
    N1324    N        0.17945    0.77316    0.19991    1.000
    Si1325   Si       0.18095    0.86542    0.16011    1.000
    N1326    N        0.20689    0.84467    0.13068    1.000
    Si1327   Si       0.20186    0.77312    0.23857    1.000
    N1328    N        0.21836    0.81285    0.23749    1.000
    Si1329   Si       0.21769    0.76172    0.18154    1.000
    Si1330   Si       0.19206    0.84801    0.24241    1.000
    N1331    N        0.17563    0.93689    0.22511    1.000
    N1332    N        0.20903    0.00315    0.15713    1.000
    Si1333   Si       0.16769    0.00675    0.17073    1.000
    Si1334   Si       0.19927    0.91142    0.19824    1.000
    N1335    N        0.18888    0.90795    0.15513    1.000
    N1336    N        0.16050    0.00498    0.21204    1.000
    N1337    N        0.18212    0.75625    0.01217    1.000
    N1338    N        0.20039    0.80281    0.30876    1.000
    Si1339   Si       0.21568    0.86820    0.35027    1.000
    N1340    N        0.17550    0.85566    0.34398    1.000
    Si1341   Si       0.19081    0.76137    0.30786    1.000
    N1342    N        0.20006    0.88748    0.26708    1.000
    Si1343   Si       0.18255    0.93969    0.33295    1.000
    N1344    N        0.21239    0.91100    0.34165    1.000
    N1345    N        0.21757    0.96975    0.33922    1.000
    Si1346   Si       0.17252    0.77798    0.48643    1.000
    N1347    N        0.18784    0.81719    0.48274    1.000
    Si1348   Si       0.18187    0.78964    0.41074    1.000
    Si1349   Si       0.16798    0.85682    0.48828    1.000
    N1350    N        0.22096    0.80563    0.41911    1.000
    Si1351   Si       0.21045    0.94654    0.43760    1.000
    Si1352   Si       0.19283    0.98629    0.37434    1.000
    N1353    N        0.20950    0.98369    0.41346    1.000
    N1354    N        0.20273    0.95292    0.47997    1.000
    N1355    N        0.18770    0.91107    0.42452    1.000
    Si1356   Si       0.22375    0.88535    0.42724    1.000
    Si1357   Si       0.22750    0.81602    0.46049    1.000
    Si1358   Si       0.20667    0.76885    0.57905    1.000
    Si1359   Si       0.20308    0.88181    0.60132    1.000
    N1360    N        0.21225    0.77690    0.62163    1.000
    N1361    N        0.19920    0.88347    0.50545    1.000
    N1362    N        0.22534    0.84474    0.59863    1.000
    Si1363   Si       0.16910    0.97198    0.71243    1.000
    N1364    N        0.17429    0.87890    0.56888    1.000
    Si1365   Si       0.18331    0.90622    0.53726    1.000
    N1366    N        0.21020    0.94110    0.54724    1.000
    Si1367   Si       0.21234    0.95366    0.58795    1.000
    N1368    N        0.18186    0.95962    0.61740    1.000
    N1369    N        0.18887    0.82428    0.66119    1.000
    N1370    N        0.20007    0.87689    0.70278    1.000
    Si1371   Si       0.17516    0.86509    0.67159    1.000
    N1372    N        0.19758    0.78585    0.73923    1.000
    Si1373   Si       0.22339    0.81800    0.63188    1.000
    Si1374   Si       0.21998    0.76138    0.71197    1.000
    Si1375   Si       0.21376    0.91833    0.71344    1.000
    N1376    N        0.20475    0.99877    0.71336    1.000
    Si1377   Si       0.16982    0.93418    0.65036    1.000
    N1378    N        0.18102    0.89191    0.63890    1.000
    N1379    N        0.18450    0.94018    0.68975    1.000
    N1380    N        0.23177    0.79134    0.55116    1.000
    N1381    N        0.18372    0.80961    0.80845    1.000
    Si1382   Si       0.18806    0.79020    0.84640    1.000
    Si1383   Si       0.21204    0.80516    0.77521    1.000
    Si1384   Si       0.22232    0.85408    0.86436    1.000
    N1385    N        0.22178    0.84623    0.76670    1.000
    Si1386   Si       0.22292    0.98815    0.82028    1.000
    N1387    N        0.20108    0.00692    0.85369    1.000
    N1388    N        0.20631    0.89190    0.84988    1.000
    Si1389   Si       0.17551    0.93708    0.78361    1.000
    N1390    N        0.20718    0.94809    0.81247    1.000
    N1391    N        0.19566    0.91277    0.75314    1.000
    Si1392   Si       0.16681    0.90906    0.85284    1.000
    N1393    N        0.17397    0.84419    0.94123    1.000
    N1394    N        0.19766    0.82115    0.87701    1.000
    Si1395   Si       0.18293    0.80886    0.91894    1.000
    N1396    N        0.20397    0.78399    0.94898    1.000
    Si1397   Si       0.20134    0.94492    0.93828    1.000
    Si1398   Si       0.17466    0.90884    0.98914    1.000
    N1399    N        0.20305    0.94944    0.98249    1.000
    N1400    N        0.17449    0.91167    0.94179    1.000
    Si1401   Si       0.17714    0.98658    0.88411    1.000
    N1402    N        0.19714    0.98569    0.92295    1.000
    Si1403   Si       0.19378    0.86996    0.74607    1.000
    N1404    N        0.26103    0.02237    0.03347    1.000
    N1405    N        0.24106    0.08739    0.02441    1.000
    Si1406   Si       0.24217    0.04766    0.00293    1.000
    Si1407   Si       0.27996    0.10541    0.03227    1.000
    Si1408   Si       0.25184    0.16335    0.07844    1.000
    Si1409   Si       0.25740    0.23986    0.06765    1.000
    N1410    N        0.24267    0.20062    0.05528    1.000
    N1411    N        0.27091    0.24870    0.11010    1.000
    Si1412   Si       0.23268    0.19273    0.01292    1.000
    N1413    N        0.26120    0.18098    0.11722    1.000
    Si1414   Si       0.27517    0.01083    0.23346    1.000
    N1415    N        0.24040    0.03226    0.21453    1.000
    Si1416   Si       0.23745    0.08447    0.14802    1.000
    N1417    N        0.26644    0.11685    0.13549    1.000
    N1418    N        0.26554    0.05114    0.15114    1.000
    Si1419   Si       0.24648    0.01952    0.17458    1.000
    N1420    N        0.24500    0.09444    0.24653    1.000
    N1421    N        0.27437    0.21423    0.24098    1.000
    Si1422   Si       0.25091    0.15286    0.15037    1.000
    N1423    N        0.26540    0.17147    0.18513    1.000
    Si1424   Si       0.26016    0.21791    0.13912    1.000
    N1425    N        0.28796    0.23176    0.17270    1.000
    N1426    N        0.27399    0.19901    0.99571    1.000
    N1427    N        0.25427    0.02501    0.33043    1.000
    N1428    N        0.27749    0.08110    0.36300    1.000
    Si1429   Si       0.25792    0.04250    0.37128    1.000
    Si1430   Si       0.22677    0.13514    0.25995    1.000
    Si1431   Si       0.27239    0.19105    0.33690    1.000
    N1432    N        0.24777    0.21426    0.30601    1.000
    Si1433   Si       0.24733    0.19456    0.26732    1.000
    N1434    N        0.26351    0.15331    0.27393    1.000
    Si1435   Si       0.27198    0.25093    0.31614    1.000
    N1436    N        0.24547    0.18011    0.36905    1.000
    N1437    N        0.23995    0.12218    0.40204    1.000
    N1438    N        0.25255    0.03065    0.46098    1.000
    Si1439   Si       0.28154    0.10756    0.39745    1.000
    N1440    N        0.28378    0.02057    0.39765    1.000
    Si1441   Si       0.24323    0.24541    0.36869    1.000
    Si1442   Si       0.26934    0.15726    0.48035    1.000
    N1443    N        0.28016    0.16797    0.44037    1.000
    Si1444   Si       0.24898    0.16472    0.41158    1.000
    Si1445   Si       0.28305    0.25398    0.25691    1.000
    N1446    N        0.22716    0.14921    0.47572    1.000
    Si1447   Si       0.28543    0.07914    0.26091    1.000
    N1448    N        0.28241    0.03612    0.26730    1.000
    N1449    N        0.22576    0.05219    0.39943    1.000
    N1450    N        0.24055    0.25790    0.40894    1.000
    Si1451   Si       0.24749    0.26064    0.44938    1.000
    Si1452   Si       0.23833    0.09624    0.56705    1.000
    Si1453   Si       0.25552    0.02497    0.57479    1.000
    N1454    N        0.27970    0.02269    0.53959    1.000
    Si1455   Si       0.25090    0.01778    0.50322    1.000
    N1456    N        0.28159    0.10006    0.56375    1.000
    N1457    N        0.23315    0.16233    0.63967    1.000
    N1458    N        0.25587    0.18172    0.57342    1.000
    Si1459   Si       0.24077    0.19864    0.53771    1.000
    N1460    N        0.26569    0.19452    0.50178    1.000
    Si1461   Si       0.24555    0.19456    0.66806    1.000
    N1462    N        0.26435    0.09327    0.62830    1.000
    N1463    N        0.23426    0.03769    0.66017    1.000
    Si1464   Si       0.27067    0.05233    0.64178    1.000
    N1465    N        0.24604    0.10445    0.68582    1.000
    N1466    N        0.25682    0.02678    0.72768    1.000
    Si1467   Si       0.23333    0.11708    0.64461    1.000
    N1468    N        0.27481    0.16853    0.69111    1.000
    N1469    N        0.27734    0.22025    0.65254    1.000
    Si1470   Si       0.26093    0.25579    0.63067    1.000
    Si1471   Si       0.26953    0.16798    0.73513    1.000
    N1472    N        0.22564    0.05571    0.57462    1.000
    N1473    N        0.27912    0.25766    0.52018    1.000
    Si1474   Si       0.24125    0.00743    0.69165    1.000
    Si1475   Si       0.25711    0.10383    0.84540    1.000
    N1476    N        0.24256    0.10818    0.80604    1.000
    N1477    N        0.24250    0.06687    0.86147    1.000
    N1478    N        0.22843    0.00989    0.78372    1.000
    Si1479   Si       0.23289    0.14876    0.78934    1.000
    N1480    N        0.26193    0.23175    0.81556    1.000
    Si1481   Si       0.26524    0.23445    0.77276    1.000
    Si1482   Si       0.25565    0.19109    0.83350    1.000
    N1483    N        0.27287    0.16751    0.80121    1.000
    N1484    N        0.23828    0.13853    0.74754    1.000
    N1485    N        0.24981    0.20381    0.74526    1.000
    N1486    N        0.27666    0.10043    0.92965    1.000
    Si1487   Si       0.25855    0.06857    0.90403    1.000
    N1488    N        0.27974    0.05395    0.98026    1.000
    N1489    N        0.24564    0.12930    0.87884    1.000
    Si1490   Si       0.25388    0.24284    0.97429    1.000
    N1491    N        0.25086    0.23612    0.93150    1.000
    N1492    N        0.26539    0.16567    0.93626    1.000
    Si1493   Si       0.27770    0.13735    0.90739    1.000
    Si1494   Si       0.24708    0.19734    0.91356    1.000
    N1495    N        0.26743    0.19742    0.87396    1.000
    Si1496   Si       0.22545    0.01273    0.94061    1.000
    Si1497   Si       0.27482    0.26124    0.84809    1.000
    N1498    N        0.27088    0.33277    0.02066    1.000
    Si1499   Si       0.25565    0.36085    0.10378    1.000
    Si1500   Si       0.24852    0.32112    0.05699    1.000
    N1501    N        0.27356    0.31957    0.09481    1.000
    Si1502   Si       0.27439    0.37631    0.00972    1.000
    N1503    N        0.23394    0.28015    0.05985    1.000
    N1504    N        0.22762    0.35761    0.07287    1.000
    N1505    N        0.23986    0.40012    0.01800    1.000
    N1506    N        0.26942    0.46897    0.08943    1.000
    Si1507   Si       0.22914    0.46587    0.07281    1.000
    Si1508   Si       0.27041    0.43456    0.11746    1.000
    N1509    N        0.27703    0.39723    0.09284    1.000
    N1510    N        0.22987    0.47075    0.02955    1.000
    Si1511   Si       0.23922    0.44112    0.99861    1.000
    Si1512   Si       0.25875    0.28938    0.12324    1.000
    N1513    N        0.27089    0.29882    0.16398    1.000
    N1514    N        0.23777    0.32367    0.23361    1.000
    N1515    N        0.24674    0.36001    0.14448    1.000
    Si1516   Si       0.28104    0.34045    0.16460    1.000
    Si1517   Si       0.23989    0.46811    0.18003    1.000
    N1518    N        0.23000    0.45554    0.21918    1.000
    Si1519   Si       0.24556    0.41673    0.22184    1.000
    N1520    N        0.23659    0.44138    0.14444    1.000
    N1521    N        0.28091    0.48344    0.18470    1.000
    N1522    N        0.22110    0.38679    0.20138    1.000
    N1523    N        0.24062    0.33734    0.29767    1.000
    N1524    N        0.24579    0.27743    0.34017    1.000
    N1525    N        0.24647    0.27008    0.27646    1.000
    N1526    N        0.27650    0.33673    0.35034    1.000
    Si1527   Si       0.23352    0.31913    0.33776    1.000
    N1528    N        0.27839    0.45786    0.41456    1.000
    N1529    N        0.25322    0.39737    0.26093    1.000
    N1530    N        0.23357    0.46592    0.30912    1.000
    Si1531   Si       0.27578    0.46715    0.32425    1.000
    N1532    N        0.24743    0.48853    0.36454    1.000
    Si1533   Si       0.22290    0.50364    0.33196    1.000
    N1534    N        0.25575    0.29958    0.46946    1.000
    N1535    N        0.26825    0.35091    0.42035    1.000
    Si1536   Si       0.27548    0.36834    0.37926    1.000
    Si1537   Si       0.28226    0.33160    0.45646    1.000
    Si1538   Si       0.22366    0.37400    0.28659    1.000
    Si1539   Si       0.24571    0.38646    0.43232    1.000
    Si1540   Si       0.26504    0.44955    0.45414    1.000
    N1541    N        0.27442    0.40753    0.45848    1.000
    N1542    N        0.27422    0.47372    0.48987    1.000
    Si1543   Si       0.24153    0.45085    0.39233    1.000
    N1544    N        0.24591    0.40203    0.38811    1.000
    Si1545   Si       0.26483    0.35573    0.52880    1.000
    Si1546   Si       0.25306    0.28972    0.51001    1.000
    N1547    N        0.27095    0.31310    0.54273    1.000
    N1548    N        0.26764    0.37433    0.62012    1.000
    N1549    N        0.25976    0.25609    0.58597    1.000
    N1550    N        0.23050    0.49006    0.55501    1.000
    N1551    N        0.22994    0.42063    0.57073    1.000
    Si1552   Si       0.23614    0.47863    0.51132    1.000
    Si1553   Si       0.26906    0.40256    0.58615    1.000
    N1554    N        0.27707    0.35175    0.67623    1.000
    Si1555   Si       0.25847    0.34392    0.71653    1.000
    Si1556   Si       0.26169    0.33447    0.63825    1.000
    N1557    N        0.27937    0.29478    0.63950    1.000
    N1558    N        0.22912    0.31109    0.71809    1.000
    N1559    N        0.24383    0.37863    0.74047    1.000
    N1560    N        0.24128    0.50848    0.68638    1.000
    N1561    N        0.24342    0.47154    0.62587    1.000
    N1562    N        0.25491    0.44237    0.71904    1.000
    Si1563   Si       0.24064    0.48264    0.72239    1.000
    N1564    N        0.22562    0.39538    0.67660    1.000
    Si1565   Si       0.22676    0.41049    0.71761    1.000
    Si1566   Si       0.26489    0.39366    0.65912    1.000
    N1567    N        0.25153    0.34699    0.85210    1.000
    Si1568   Si       0.24451    0.31555    0.82208    1.000
    N1569    N        0.23317    0.32606    0.78226    1.000
    N1570    N        0.27418    0.27112    0.75237    1.000
    Si1571   Si       0.23250    0.29022    0.75586    1.000
    Si1572   Si       0.25275    0.38510    0.83193    1.000
    Si1573   Si       0.23654    0.49521    0.79698    1.000
    Si1574   Si       0.25590    0.46341    0.84845    1.000
    N1575    N        0.25329    0.41995    0.85615    1.000
    N1576    N        0.25724    0.49789    0.75983    1.000
    N1577    N        0.26914    0.50441    0.82468    1.000
    N1578    N        0.23819    0.47333    0.88643    1.000
    N1579    N        0.28124    0.38723    0.79911    1.000
    N1580    N        0.24565    0.28944    0.96574    1.000
    Si1581   Si       0.24440    0.36442    0.94103    1.000
    Si1582   Si       0.24330    0.27940    0.92350    1.000
    Si1583   Si       0.27834    0.30208    0.99177    1.000
    N1584    N        0.27095    0.34163    0.91775    1.000
    N1585    N        0.26416    0.28285    0.88406    1.000
    Si1586   Si       0.27943    0.32337    0.87831    1.000
    N1587    N        0.27945    0.38174    0.96486    1.000
    Si1588   Si       0.24600    0.43178    0.89937    1.000
    N1589    N        0.27881    0.45107    0.98093    1.000
    Si1590   Si       0.25251    0.57726    0.02285    1.000
    N1591    N        0.24423    0.61213    0.04628    1.000
    N1592    N        0.23510    0.53942    0.04035    1.000
    N1593    N        0.24584    0.54747    0.11711    1.000
    Si1594   Si       0.26438    0.63341    0.07753    1.000
    N1595    N        0.23295    0.69253    0.02600    1.000
    N1596    N        0.27267    0.74340    0.10399    1.000
    Si1597   Si       0.27735    0.69222    0.03272    1.000
    N1598    N        0.22882    0.63766    0.10013    1.000
    N1599    N        0.27830    0.55026    0.18216    1.000
    N1600    N        0.26742    0.59742    0.22663    1.000
    Si1601   Si       0.24176    0.54128    0.15981    1.000
    Si1602   Si       0.22826    0.58451    0.21709    1.000
    N1603    N        0.28337    0.68086    0.13979    1.000
    N1604    N        0.26921    0.69531    0.20578    1.000
    N1605    N        0.23318    0.74857    0.22263    1.000
    Si1606   Si       0.25152    0.69171    0.16766    1.000
    Si1607   Si       0.24222    0.71047    0.23965    1.000
    N1608    N        0.23465    0.72962    0.15685    1.000
    Si1609   Si       0.25183    0.54008    0.27018    1.000
    N1610    N        0.23909    0.61753    0.35586    1.000
    N1611    N        0.26862    0.55177    0.36521    1.000
    N1612    N        0.27519    0.56921    0.28945    1.000
    Si1613   Si       0.28167    0.60642    0.26634    1.000
    N1614    N        0.25985    0.63619    0.28683    1.000
    Si1615   Si       0.26596    0.63968    0.33028    1.000
    Si1616   Si       0.25050    0.71076    0.31904    1.000
    N1617    N        0.26363    0.71370    0.27829    1.000
    N1618    N        0.23018    0.67304    0.32499    1.000
    Si1619   Si       0.27725    0.61270    0.44485    1.000
    Si1620   Si       0.27211    0.51607    0.39022    1.000
    Si1621   Si       0.23665    0.58119    0.37843    1.000
    Si1622   Si       0.24900    0.55698    0.44887    1.000
    N1623    N        0.25457    0.58829    0.41827    1.000
    N1624    N        0.27625    0.58127    0.47820    1.000
    N1625    N        0.24987    0.51899    0.42790    1.000
    N1626    N        0.25124    0.73354    0.39783    1.000
    N1627    N        0.25053    0.64470    0.45889    1.000
    N1628    N        0.24161    0.55717    0.59061    1.000
    Si1629   Si       0.25684    0.58527    0.52056    1.000
    N1630    N        0.23610    0.62492    0.52280    1.000
    Si1631   Si       0.25149    0.71053    0.54986    1.000
    N1632    N        0.26871    0.74027    0.52601    1.000
    N1633    N        0.27623    0.68711    0.57435    1.000
    Si1634   Si       0.25640    0.65741    0.49966    1.000
    Si1635   Si       0.22252    0.68668    0.72784    1.000
    N1636    N        0.24436    0.57826    0.66027    1.000
    Si1637   Si       0.25233    0.55113    0.69283    1.000
    Si1638   Si       0.27381    0.60943    0.65112    1.000
    N1639    N        0.27689    0.59680    0.74522    1.000
    N1640    N        0.23871    0.71414    0.65858    1.000
    Si1641   Si       0.23271    0.66899    0.65857    1.000
    Si1642   Si       0.27917    0.74561    0.73870    1.000
    Si1643   Si       0.28157    0.72718    0.66532    1.000
    Si1644   Si       0.27480    0.63389    0.71737    1.000
    N1645    N        0.26245    0.65005    0.63451    1.000
    N1646    N        0.24431    0.65877    0.69932    1.000
    N1647    N        0.23676    0.72667    0.73281    1.000
    N1648    N        0.27139    0.57431    0.80722    1.000
    Si1649   Si       0.24792    0.57359    0.76856    1.000
    Si1650   Si       0.26230    0.54480    0.84006    1.000
    N1651    N        0.27028    0.68186    0.94882    1.000
    N1652    N        0.23314    0.66725    0.76556    1.000
    Si1653   Si       0.25282    0.65878    0.84394    1.000
    Si1654   Si       0.24405    0.72923    0.85957    1.000
    Si1655   Si       0.27605    0.67394    0.77644    1.000
    N1656    N        0.27841    0.64635    0.80971    1.000
    N1657    N        0.24651    0.73039    0.90147    1.000
    N1658    N        0.24864    0.61169    0.91925    1.000
    Si1659   Si       0.27169    0.57366    0.91365    1.000
    Si1660   Si       0.24566    0.53278    0.96547    1.000
    N1661    N        0.24771    0.53812    0.92278    1.000
    N1662    N        0.24297    0.57616    0.98066    1.000
    N1663    N        0.28450    0.52375    0.98219    1.000
    Si1664   Si       0.25885    0.65494    0.91576    1.000
    N1665    N        0.26218    0.75433    0.97094    1.000
    N1666    N        0.27954    0.66040    0.87877    1.000
    Si1667   Si       0.25007    0.72075    0.94284    1.000
    N1668    N        0.22655    0.62308    0.85372    1.000
    N1669    N        0.22551    0.69211    0.84153    1.000
    Si1670   Si       0.25874    0.87203    0.07961    1.000
    N1671    N        0.27231    0.84236    0.11100    1.000
    N1672    N        0.27099    0.87379    0.03491    1.000
    N1673    N        0.23472    0.76346    0.04686    1.000
    Si1674   Si       0.23217    0.85953    0.02163    1.000
    N1675    N        0.23444    0.81608    0.00608    1.000
    Si1676   Si       0.27528    0.76239    0.06379    1.000
    Si1677   Si       0.23447    0.93256    0.00762    1.000
    N1678    N        0.25704    0.95115    0.04071    1.000
    N1679    N        0.25089    0.98477    0.09536    1.000
    Si1680   Si       0.27085    0.94950    0.08340    1.000
    N1681    N        0.26139    0.91092    0.09612    1.000
    Si1682   Si       0.23917    0.99109    0.05104    1.000
    Si1683   Si       0.24620    0.83133    0.14455    1.000
    N1684    N        0.24167    0.79123    0.16069    1.000
    N1685    N        0.26233    0.85408    0.17737    1.000
    N1686    N        0.23951    0.91880    0.20547    1.000
    Si1687   Si       0.26716    0.88411    0.20814    1.000
    N1688    N        0.27768    0.96904    0.24219    1.000
    N1689    N        0.27406    0.98208    0.17678    1.000
    Si1690   Si       0.27265    0.94657    0.20238    1.000
    Si1691   Si       0.26948    0.75831    0.14671    1.000
    N1692    N        0.25050    0.79883    0.35907    1.000
    Si1693   Si       0.24261    0.81338    0.31813    1.000
    N1694    N        0.24013    0.85708    0.31566    1.000
    N1695    N        0.26868    0.80338    0.28625    1.000
    Si1696   Si       0.23172    0.76071    0.36789    1.000
    Si1697   Si       0.26020    0.82174    0.24683    1.000
    Si1698   Si       0.28027    0.92394    0.40331    1.000
    Si1699   Si       0.24197    0.88546    0.28250    1.000
    Si1700   Si       0.24677    0.93701    0.33276    1.000
    N1701    N        0.26374    0.92135    0.29529    1.000
    N1702    N        0.27943    0.93697    0.36254    1.000
    N1703    N        0.24676    0.92248    0.43035    1.000
    N1704    N        0.23955    0.85804    0.45715    1.000
    N1705    N        0.23661    0.86557    0.38865    1.000
    Si1706   Si       0.25155    0.82456    0.39603    1.000
    N1707    N        0.25912    0.79432    0.48202    1.000
    N1708    N        0.26296    0.86608    0.24743    1.000
    Si1709   Si       0.25049    0.82701    0.56382    1.000
    N1710    N        0.26186    0.84456    0.52393    1.000
    Si1711   Si       0.23992    0.77135    0.51364    1.000
    Si1712   Si       0.24205    0.87351    0.49920    1.000
    N1713    N        0.25681    0.92486    0.72068    1.000
    N1714    N        0.26284    0.91009    0.51281    1.000
    N1715    N        0.24045    0.98681    0.59447    1.000
    Si1716   Si       0.27531    0.91486    0.61563    1.000
    N1717    N        0.23243    0.91692    0.60565    1.000
    Si1718   Si       0.23476    0.94213    0.50911    1.000
    N1719    N        0.26074    0.97539    0.50120    1.000
    N1720    N        0.26099    0.77646    0.70618    1.000
    N1721    N        0.25922    0.82790    0.65442    1.000
    N1722    N        0.26337    0.97644    0.67034    1.000
    N1723    N        0.27394    0.90257    0.65899    1.000
    Si1724   Si       0.26938    0.98506    0.62760    1.000
    Si1725   Si       0.27872    0.93863    0.68382    1.000
    Si1726   Si       0.28366    0.79981    0.67786    1.000
    Si1727   Si       0.25164    0.86112    0.79335    1.000
    N1728    N        0.24741    0.83956    0.83147    1.000
    Si1729   Si       0.26066    0.79577    0.83519    1.000
    N1730    N        0.25083    0.78747    0.78780    1.000
    N1731    N        0.22657    0.76752    0.84641    1.000
    Si1732   Si       0.23330    0.91757    0.82811    1.000
    N1733    N        0.26571    0.98144    0.82291    1.000
    N1734    N        0.25642    0.90547    0.79211    1.000
    N1735    N        0.26504    0.92636    0.85776    1.000
    Si1736   Si       0.27353    0.00235    0.78603    1.000
    Si1737   Si       0.27801    0.92642    0.75814    1.000
    Si1738   Si       0.27850    0.95007    0.94449    1.000
    N1739    N        0.25426    0.86694    0.89381    1.000
    N1740    N        0.26729    0.81971    0.94526    1.000
    Si1741   Si       0.24189    0.79261    0.96858    1.000
    Si1742   Si       0.27925    0.83419    0.90574    1.000
    N1743    N        0.28098    0.80335    0.87653    1.000
    N1744    N        0.27282    0.93433    0.98457    1.000
    N1745    N        0.26366    0.99364    0.93229    1.000
    Si1746   Si       0.26422    0.90761    0.89871    1.000
    N1747    N        0.24024    0.93158    0.92587    1.000
    N1748    N        0.30890    0.07847    0.10143    1.000
    Si1749   Si       0.30107    0.12010    0.10600    1.000
    N1750    N        0.31211    0.07364    0.03278    1.000
    Si1751   Si       0.30407    0.03267    0.01328    1.000
    Si1752   Si       0.33368    0.06560    0.07030    1.000
    N1753    N        0.28427    0.13231    0.06649    1.000
    N1754    N        0.30138    0.23541    0.05670    1.000
    Si1755   Si       0.30341    0.22497    0.01533    1.000
    Si1756   Si       0.31606    0.24537    0.09627    1.000
    N1757    N        0.31886    0.09080    0.23404    1.000
    N1758    N        0.30767    0.02592    0.20664    1.000
    Si1759   Si       0.30626    0.05806    0.13828    1.000
    Si1760   Si       0.33053    0.06229    0.20422    1.000
    N1761    N        0.32225    0.01605    0.13839    1.000
    N1762    N        0.33735    0.07745    0.16425    1.000
    N1763    N        0.33674    0.21703    0.12344    1.000
    Si1764   Si       0.29093    0.19938    0.20350    1.000
    N1765    N        0.33554    0.19921    0.19324    1.000
    N1766    N        0.33522    0.14165    0.12876    1.000
    Si1767   Si       0.33058    0.22899    0.16349    1.000
    Si1768   Si       0.30833    0.07796    0.33272    1.000
    N1769    N        0.32192    0.03931    0.32207    1.000
    N1770    N        0.29570    0.09948    0.29767    1.000
    Si1771   Si       0.28853    0.01696    0.30620    1.000
    N1772    N        0.33898    0.20359    0.40505    1.000
    N1773    N        0.33953    0.10291    0.34877    1.000
    Si1774   Si       0.31857    0.23337    0.37976    1.000
    Si1775   Si       0.30223    0.14288    0.28921    1.000
    Si1776   Si       0.33170    0.14562    0.35380    1.000
    N1777    N        0.30472    0.16492    0.32622    1.000
    N1778    N        0.30852    0.24733    0.29306    1.000
    N1779    N        0.33885    0.15170    0.26844    1.000
    Si1780   Si       0.31968    0.16839    0.42091    1.000
    N1781    N        0.28304    0.22926    0.35522    1.000
    N1782    N        0.29514    0.12469    0.49385    1.000
    Si1783   Si       0.28777    0.04011    0.43731    1.000
    N1784    N        0.29334    0.08330    0.43257    1.000
    Si1785   Si       0.31777    0.10795    0.46058    1.000
    N1786    N        0.32708    0.01753    0.44384    1.000
    N1787    N        0.28978    0.24519    0.45313    1.000
    N1788    N        0.30578    0.14304    0.38801    1.000
    Si1789   Si       0.31124    0.11624    0.53458    1.000
    Si1790   Si       0.29891    0.10444    0.60517    1.000
    Si1791   Si       0.32988    0.02872    0.60867    1.000
    N1792    N        0.33122    0.07339    0.60477    1.000
    N1793    N        0.33620    0.18536    0.66149    1.000
    N1794    N        0.28397    0.02493    0.61096    1.000
    N1795    N        0.33113    0.21263    0.50888    1.000
    N1796    N        0.32632    0.20751    0.58030    1.000
    Si1797   Si       0.29721    0.17414    0.58440    1.000
    N1798    N        0.32001    0.15470    0.54972    1.000
    N1799    N        0.30367    0.14684    0.61636    1.000
    N1800    N        0.32298    0.24776    0.70390    1.000
    N1801    N        0.33592    0.25228    0.63688    1.000
    Si1802   Si       0.29204    0.04505    0.74246    1.000
    N1803    N        0.30008    0.05523    0.67172    1.000
    N1804    N        0.29932    0.08602    0.73079    1.000
    N1805    N        0.32502    0.02112    0.72176    1.000
    N1806    N        0.32247    0.11834    0.67654    1.000
    Si1807   Si       0.33851    0.03895    0.68412    1.000
    Si1808   Si       0.28836    0.09232    0.69061    1.000
    Si1809   Si       0.31766    0.22437    0.66768    1.000
    Si1810   Si       0.30548    0.15474    0.66101    1.000
    Si1811   Si       0.31407    0.25904    0.74535    1.000
    Si1812   Si       0.29405    0.22662    0.49428    1.000
    N1813    N        0.30119    0.10049    0.84492    1.000
    Si1814   Si       0.31619    0.06959    0.81505    1.000
    N1815    N        0.29485    0.04194    0.78746    1.000
    Si1816   Si       0.33330    0.12240    0.86492    1.000
    Si1817   Si       0.32675    0.11457    0.75139    1.000
    N1818    N        0.33848    0.09738    0.78770    1.000
    Si1819   Si       0.31207    0.19717    0.87213    1.000
    Si1820   Si       0.31348    0.18127    0.78846    1.000
    N1821    N        0.31045    0.22255    0.76968    1.000
    N1822    N        0.32446    0.18510    0.83144    1.000
    N1823    N        0.31307    0.24203    0.85823    1.000
    N1824    N        0.30874    0.15509    0.75082    1.000
    N1825    N        0.34306    0.04870    0.84055    1.000
    N1826    N        0.29130    0.04203    0.89981    1.000
    Si1827   Si       0.29818    0.09054    0.96690    1.000
    Si1828   Si       0.32885    0.05313    0.88258    1.000
    N1829    N        0.28837    0.12434    0.99453    1.000
    N1830    N        0.33022    0.16849    0.96224    1.000
    N1831    N        0.31579    0.15238    0.89370    1.000
    N1832    N        0.34097    0.08918    0.96110    1.000
    Si1833   Si       0.28892    0.16384    0.97530    1.000
    Si1834   Si       0.31594    0.32254    0.09807    1.000
    N1835    N        0.33034    0.35623    0.07490    1.000
    N1836    N        0.33688    0.28541    0.09601    1.000
    N1837    N        0.30737    0.39930    0.02596    1.000
    Si1838   Si       0.31236    0.39585    0.06892    1.000
    N1839    N        0.30675    0.48729    0.03839    1.000
    Si1840   Si       0.30179    0.49648    0.07930    1.000
    N1841    N        0.33454    0.49172    0.10861    1.000
    N1842    N        0.31728    0.34053    0.13991    1.000
    Si1843   Si       0.29634    0.27225    0.18493    1.000
    N1844    N        0.29505    0.35223    0.20317    1.000
    N1845    N        0.29392    0.28157    0.22685    1.000
    N1846    N        0.33893    0.26935    0.17659    1.000
    Si1847   Si       0.28098    0.32334    0.23633    1.000
    N1848    N        0.30647    0.43866    0.14080    1.000
    N1849    N        0.28587    0.42262    0.20591    1.000
    Si1850   Si       0.30917    0.44987    0.18286    1.000
    Si1851   Si       0.31653    0.39026    0.21023    1.000
    Si1852   Si       0.34069    0.44843    0.11535    1.000
    N1853    N        0.34430    0.42176    0.08131    1.000
    N1854    N        0.30363    0.32917    0.27389    1.000
    Si1855   Si       0.28344    0.34684    0.30815    1.000
    N1856    N        0.29925    0.38961    0.31120    1.000
    Si1857   Si       0.32222    0.40867    0.34108    1.000
    N1858    N        0.30424    0.44799    0.35173    1.000
    Si1859   Si       0.30641    0.49904    0.27712    1.000
    Si1860   Si       0.29150    0.41335    0.27523    1.000
    N1861    N        0.29473    0.45735    0.28341    1.000
    N1862    N        0.32522    0.39961    0.25169    1.000
    Si1863   Si       0.32125    0.27075    0.43987    1.000
    N1864    N        0.32084    0.31301    0.45043    1.000
    N1865    N        0.32824    0.27144    0.39644    1.000
    N1866    N        0.29071    0.35540    0.49209    1.000
    N1867    N        0.34098    0.37844    0.44581    1.000
    N1868    N        0.31625    0.38556    0.37811    1.000
    Si1869   Si       0.30872    0.49896    0.48367    1.000
    N1870    N        0.34461    0.47249    0.47793    1.000
    Si1871   Si       0.31149    0.39117    0.47598    1.000
    Si1872   Si       0.31246    0.46201    0.39105    1.000
    N1873    N        0.31359    0.50623    0.38809    1.000
    N1874    N        0.34272    0.43988    0.41228    1.000
    N1875    N        0.28600    0.51027    0.31509    1.000
    N1876    N        0.32771    0.27435    0.57493    1.000
    N1877    N        0.28655    0.42825    0.66694    1.000
    Si1878   Si       0.28803    0.27374    0.55940    1.000
    Si1879   Si       0.32942    0.38578    0.54406    1.000
    N1880    N        0.32586    0.47110    0.54553    1.000
    Si1881   Si       0.33213    0.44694    0.58161    1.000
    N1882    N        0.29436    0.43711    0.60129    1.000
    N1883    N        0.33320    0.40913    0.50812    1.000
    N1884    N        0.28708    0.38487    0.55207    1.000
    Si1885   Si       0.30197    0.44271    0.70824    1.000
    Si1886   Si       0.32050    0.29424    0.64334    1.000
    N1887    N        0.30236    0.35015    0.73633    1.000
    Si1888   Si       0.31809    0.35091    0.69400    1.000
    N1889    N        0.33399    0.31145    0.68112    1.000
    N1890    N        0.30478    0.49530    0.64830    1.000
    Si1891   Si       0.28330    0.45970    0.63706    1.000
    N1892    N        0.31094    0.48392    0.71951    1.000
    Si1893   Si       0.32457    0.31155    0.82614    1.000
    N1894    N        0.33343    0.34622    0.79913    1.000
    N1895    N        0.32009    0.32613    0.86603    1.000
    Si1896   Si       0.33643    0.33269    0.75598    1.000
    Si1897   Si       0.32258    0.38653    0.81301    1.000
    Si1898   Si       0.31233    0.42886    0.87888    1.000
    Si1899   Si       0.28481    0.38635    0.75555    1.000
    N1900    N        0.31478    0.39209    0.85670    1.000
    Si1901   Si       0.31795    0.49372    0.83075    1.000
    N1902    N        0.30101    0.46416    0.85799    1.000
    N1903    N        0.32014    0.47567    0.78986    1.000
    Si1904   Si       0.30237    0.50199    0.75877    1.000
    Si1905   Si       0.34276    0.44064    0.77347    1.000
    N1906    N        0.33922    0.36554    0.91711    1.000
    Si1907   Si       0.32965    0.27597    0.97143    1.000
    N1908    N        0.31185    0.31404    0.96535    1.000
    Si1909   Si       0.30689    0.35187    0.94284    1.000
    Si1910   Si       0.30309    0.48605    0.99557    1.000
    Si1911   Si       0.29704    0.42159    0.95499    1.000
    N1912    N        0.28734    0.42882    0.91385    1.000
    N1913    N        0.34123    0.48526    0.97594    1.000
    N1914    N        0.33871    0.41380    0.96292    1.000
    N1915    N        0.28307    0.29687    0.82171    1.000
    N1916    N        0.29389    0.25839    0.98921    1.000
    N1917    N        0.31245    0.42011    0.74641    1.000
    Si1918   Si       0.31638    0.57948    0.06047    1.000
    N1919    N        0.30833    0.53968    0.07979    1.000
    N1920    N        0.29780    0.57711    0.02196    1.000
    N1921    N        0.30338    0.61331    0.08660    1.000
    Si1922   Si       0.32147    0.60327    0.12638    1.000
    Si1923   Si       0.32620    0.65816    0.08813    1.000
    N1924    N        0.30612    0.67268    0.00666    1.000
    N1925    N        0.33442    0.70133    0.10096    1.000
    N1926    N        0.29282    0.73439    0.03531    1.000
    Si1927   Si       0.29055    0.70450    0.10432    1.000
    N1928    N        0.28329    0.67242    0.07299    1.000
    N1929    N        0.30381    0.74051    0.16792    1.000
    N1930    N        0.34055    0.52686    0.19933    1.000
    Si1931   Si       0.29269    0.58873    0.19305    1.000
    Si1932   Si       0.29729    0.51948    0.20380    1.000
    N1933    N        0.29456    0.61583    0.16020    1.000
    N1934    N        0.33355    0.58992    0.20714    1.000
    N1935    N        0.31743    0.73728    0.23516    1.000
    N1936    N        0.33310    0.67648    0.19167    1.000
    Si1937   Si       0.30779    0.71278    0.20129    1.000
    Si1938   Si       0.31341    0.65564    0.15958    1.000
    N1939    N        0.28526    0.52017    0.24669    1.000
    Si1940   Si       0.29689    0.75357    0.99622    1.000
    N1941    N        0.32436    0.61138    0.27767    1.000
    N1942    N        0.32992    0.57277    0.33382    1.000
    Si1943   Si       0.33293    0.61505    0.32090    1.000
    Si1944   Si       0.28919    0.55246    0.32737    1.000
    N1945    N        0.31473    0.75746    0.37921    1.000
    Si1946   Si       0.29134    0.72053    0.38631    1.000
    N1947    N        0.30502    0.63587    0.34844    1.000
    N1948    N        0.31503    0.75118    0.30288    1.000
    N1949    N        0.32790    0.69029    0.29459    1.000
    Si1950   Si       0.30616    0.72118    0.27351    1.000
    Si1951   Si       0.32766    0.71822    0.32798    1.000
    N1952    N        0.28756    0.70907    0.34441    1.000
    Si1953   Si       0.31443    0.56158    0.48678    1.000
    N1954    N        0.32320    0.53331    0.45456    1.000
    N1955    N        0.31470    0.62118    0.42573    1.000
    Si1956   Si       0.33906    0.52702    0.41776    1.000
    Si1957   Si       0.32176    0.64815    0.38881    1.000
    N1958    N        0.31676    0.68912    0.40637    1.000
    Si1959   Si       0.33951    0.70900    0.43881    1.000
    N1960    N        0.32129    0.73856    0.46676    1.000
    N1961    N        0.30910    0.52943    0.58248    1.000
    N1962    N        0.30548    0.53039    0.51684    1.000
    Si1963   Si       0.32994    0.60630    0.54477    1.000
    Si1964   Si       0.33669    0.60755    0.61679    1.000
    Si1965   Si       0.32919    0.51296    0.54862    1.000
    N1966    N        0.29001    0.59157    0.55012    1.000
    N1967    N        0.29760    0.58870    0.62132    1.000
    Si1968   Si       0.32780    0.74530    0.62603    1.000
    N1969    N        0.29957    0.66310    0.74127    1.000
    N1970    N        0.33968    0.65004    0.54103    1.000
    N1971    N        0.32900    0.64906    0.60601    1.000
    Si1972   Si       0.33570    0.67826    0.51031    1.000
    Si1973   Si       0.29198    0.67303    0.61087    1.000
    N1974    N        0.33860    0.72317    0.52338    1.000
    Si1975   Si       0.29848    0.72449    0.50195    1.000
    N1976    N        0.29346    0.68124    0.50187    1.000
    N1977    N        0.29447    0.54718    0.69913    1.000
    Si1978   Si       0.31307    0.57566    0.73050    1.000
    N1979    N        0.29908    0.62008    0.68392    1.000
    Si1980   Si       0.31854    0.51302    0.68691    1.000
    Si1981   Si       0.34168    0.62205    0.68874    1.000
    Si1982   Si       0.32362    0.69130    0.71927    1.000
    N1983    N        0.30554    0.70842    0.63343    1.000
    N1984    N        0.29535    0.71895    0.70532    1.000
    Si1985   Si       0.32858    0.51041    0.61529    1.000
    N1986    N        0.34322    0.58813    0.50486    1.000
    Si1987   Si       0.28392    0.56606    0.58537    1.000
    Si1988   Si       0.29792    0.60704    0.81204    1.000
    N1989    N        0.32055    0.61024    0.84970    1.000
    N1990    N        0.32213    0.54123    0.75762    1.000
    Si1991   Si       0.32633    0.56870    0.86178    1.000
    N1992    N        0.32796    0.53843    0.83004    1.000
    N1993    N        0.33451    0.59791    0.78942    1.000
    Si1994   Si       0.30763    0.74232    0.80926    1.000
    N1995    N        0.33882    0.68182    0.85555    1.000
    N1996    N        0.28715    0.71721    0.77862    1.000
    N1997    N        0.33420    0.63777    0.91173    1.000
    Si1998   Si       0.31898    0.64586    0.87060    1.000
    N1999    N        0.30367    0.58352    0.94225    1.000
    Si2000   Si       0.30555    0.56233    0.98010    1.000
    N2001    N        0.28696    0.55996    0.87597    1.000
    Si2002   Si       0.34195    0.59866    0.92657    1.000
    Si2003   Si       0.33683    0.74624    0.92554    1.000
    N2004    N        0.31761    0.70742    0.91784    1.000
    Si2005   Si       0.31278    0.68993    0.96307    1.000
    Si2006   Si       0.31314    0.71109    0.87622    1.000
    N2007    N        0.32684    0.73313    0.97529    1.000
    N2008    N        0.33384    0.75118    0.88020    1.000
    N2009    N        0.28532    0.72474    0.84396    1.000
    Si2010   Si       0.32869    0.80706    0.03757    1.000
    Si2011   Si       0.30624    0.81824    0.10684    1.000
    N2012    N        0.30140    0.79549    0.06960    1.000
    Si2013   Si       0.31022    0.87634    0.01718    1.000
    N2014    N        0.33416    0.85092    0.04133    1.000
    N2015    N        0.30980    0.79417    0.99978    1.000
    Si2016   Si       0.29491    0.94756    0.01898    1.000
    N2017    N        0.31260    0.95592    0.07773    1.000
    N2018    N        0.31469    0.98606    0.01735    1.000
    N2019    N        0.32691    0.91670    0.02188    1.000
    Si2020   Si       0.33668    0.98523    0.05525    1.000
    Si2021   Si       0.33409    0.77052    0.15760    1.000
    Si2022   Si       0.32018    0.78081    0.23231    1.000
    N2023    N        0.32766    0.85115    0.18702    1.000
    N2024    N        0.30145    0.79875    0.14657    1.000
    Si2025   Si       0.29474    0.82221    0.18148    1.000
    N2026    N        0.28582    0.80162    0.21852    1.000
    Si2027   Si       0.31398    0.99755    0.17457    1.000
    N2028    N        0.30093    0.91354    0.20022    1.000
    Si2029   Si       0.33611    0.89316    0.18388    1.000
    N2030    N        0.31952    0.81798    0.33439    1.000
    Si2031   Si       0.30726    0.79314    0.30156    1.000
    N2032    N        0.33302    0.80296    0.26705    1.000
    Si2033   Si       0.31602    0.95342    0.34681    1.000
    N2034    N        0.33119    0.92991    0.26351    1.000
    N2035    N        0.29972    0.97494    0.31002    1.000
    Si2036   Si       0.29320    0.94704    0.27691    1.000
    N2037    N        0.33464    0.98658    0.36846    1.000
    Si2038   Si       0.31700    0.80193    0.37660    1.000
    Si2039   Si       0.32004    0.85161    0.42949    1.000
    N2040    N        0.31371    0.84793    0.47244    1.000
    N2041    N        0.29455    0.82581    0.40491    1.000
    Si2042   Si       0.33810    0.87746    0.49209    1.000
    N2043    N        0.34364    0.91393    0.46887    1.000
    N2044    N        0.30760    0.89159    0.41447    1.000
    Si2045   Si       0.33492    0.92310    0.42824    1.000
    N2046    N        0.30782    0.95541    0.42024    1.000
    Si2047   Si       0.31637    0.99506    0.40766    1.000
    N2048    N        0.32214    0.79229    0.51755    1.000
    Si2049   Si       0.31131    0.85308    0.59342    1.000
    Si2050   Si       0.32443    0.80013    0.56120    1.000
    N2051    N        0.33217    0.76374    0.58614    1.000
    Si2052   Si       0.28997    0.81906    0.49796    1.000
    N2053    N        0.33078    0.89607    0.53091    1.000
    Si2054   Si       0.29317    0.91159    0.54450    1.000
    N2055    N        0.30177    0.95315    0.55209    1.000
    Si2056   Si       0.32843    0.96115    0.58781    1.000
    Si2057   Si       0.29745    0.98473    0.52459    1.000
    N2058    N        0.29577    0.95340    0.61632    1.000
    N2059    N        0.28964    0.89034    0.58276    1.000
    Si2060   Si       0.32093    0.97882    0.72925    1.000
    N2061    N        0.31969    0.94642    0.69731    1.000
    N2062    N        0.30711    0.83345    0.69569    1.000
    N2063    N        0.31899    0.85952    0.63581    1.000
    N2064    N        0.29977    0.76806    0.65365    1.000
    Si2065   Si       0.28698    0.85986    0.66500    1.000
    N2066    N        0.28865    0.81741    0.57879    1.000
    N2067    N        0.33332    0.97952    0.50135    1.000
    N2068    N        0.31037    0.77493    0.75388    1.000
    Si2069   Si       0.32603    0.86835    0.77984    1.000
    N2070    N        0.30252    0.78447    0.82085    1.000
    Si2071   Si       0.31905    0.78735    0.86159    1.000
    Si2072   Si       0.29147    0.80330    0.77962    1.000
    N2073    N        0.28991    0.84721    0.78179    1.000
    N2074    N        0.34438    0.87351    0.81914    1.000
    N2075    N        0.33179    0.94120    0.83635    1.000
    N2076    N        0.31837    0.90882    0.76265    1.000
    Si2077   Si       0.29203    0.95796    0.84639    1.000
    N2078    N        0.29030    0.96979    0.75852    1.000
    N2079    N        0.31239    0.86007    0.97722    1.000
    N2080    N        0.31788    0.84802    0.91488    1.000
    Si2081   Si       0.30759    0.81864    0.96357    1.000
    N2082    N        0.33169    0.79099    0.93748    1.000
    Si2083   Si       0.32133    0.88238    0.94089    1.000
    Si2084   Si       0.34526    0.94103    0.93561    1.000
    Si2085   Si       0.34243    0.98789    0.98426    1.000
    Si2086   Si       0.30631    0.00349    0.91595    1.000
    N2087    N        0.31920    0.97413    0.94948    1.000
    N2088    N        0.30214    0.91747    0.92362    1.000
    N2089    N        0.30909    0.97798    0.88057    1.000
    N2090    N        0.36345    0.10036    0.07481    1.000
    N2091    N        0.38932    0.17887    0.15536    1.000
    Si2092   Si       0.38055    0.13802    0.06151    1.000
    N2093    N        0.37018    0.14301    0.01803    1.000
    Si2094   Si       0.37528    0.24953    0.01922    1.000
    N2095    N        0.37953    0.17617    0.08252    1.000
    N2096    N        0.38188    0.24885    0.06109    1.000
    N2097    N        0.34549    0.21453    0.01056    1.000
    Si2098   Si       0.35859    0.17928    0.12299    1.000
    N2099    N        0.38777    0.03009    0.13143    1.000
    Si2100   Si       0.35855    0.11603    0.15811    1.000
    Si2101   Si       0.35021    0.12104    0.23932    1.000
    Si2102   Si       0.37982    0.05881    0.16179    1.000
    N2103    N        0.37564    0.04805    0.20429    1.000
    N2104    N        0.39808    0.09656    0.15272    1.000
    N2105    N        0.35814    0.13469    0.19801    1.000
    N2106    N        0.39167    0.18230    0.23605    1.000
    Si2107   Si       0.37203    0.17658    0.19717    1.000
    N2108    N        0.39821    0.07143    0.00993    1.000
    N2109    N        0.34461    0.02338    0.07407    1.000
    Si2110   Si       0.35484    0.00813    0.11368    1.000
    Si2111   Si       0.35513    0.01721    0.34414    1.000
    Si2112   Si       0.37578    0.08858    0.36467    1.000
    N2113    N        0.38957    0.10645    0.24874    1.000
    N2114    N        0.37280    0.04465    0.37124    1.000
    N2115    N        0.35315    0.23692    0.35091    1.000
    Si2116   Si       0.37253    0.18024    0.27564    1.000
    N2117    N        0.37905    0.21801    0.29149    1.000
    N2118    N        0.37093    0.16055    0.35772    1.000
    Si2119   Si       0.34955    0.24752    0.30760    1.000
    Si2120   Si       0.37889    0.20230    0.37308    1.000
    Si2121   Si       0.37825    0.11263    0.44235    1.000
    N2122    N        0.35613    0.08540    0.46719    1.000
    N2123    N        0.38916    0.08963    0.40731    1.000
    N2124    N        0.39457    0.02756    0.44094    1.000
    Si2125   Si       0.40115    0.04704    0.40263    1.000
    N2126    N        0.34234    0.13929    0.44127    1.000
    N2127    N        0.35648    0.25466    0.45790    1.000
    N2128    N        0.39128    0.20361    0.46508    1.000
    Si2129   Si       0.37426    0.22213    0.42992    1.000
    N2130    N        0.39095    0.25337    0.40319    1.000
    Si2131   Si       0.36234    0.08466    0.57830    1.000
    N2132    N        0.39225    0.05443    0.56337    1.000
    Si2133   Si       0.37113    0.07520    0.50729    1.000
    N2134    N        0.37306    0.03202    0.50516    1.000
    Si2135   Si       0.37774    0.01585    0.54722    1.000
    N2136    N        0.38839    0.11609    0.59292    1.000
    N2137    N        0.38488    0.19206    0.53118    1.000
    N2138    N        0.38748    0.23685    0.58615    1.000
    Si2139   Si       0.37266    0.22103    0.50081    1.000
    N2140    N        0.37667    0.19421    0.71575    1.000
    N2141    N        0.38968    0.25878    0.51554    1.000
    Si2142   Si       0.36396    0.10909    0.68950    1.000
    N2143    N        0.36538    0.12301    0.73149    1.000
    N2144    N        0.35123    0.01991    0.64598    1.000
    N2145    N        0.37492    0.06754    0.68885    1.000
    Si2146   Si       0.38117    0.16288    0.74514    1.000
    N2147    N        0.39090    0.13713    0.66935    1.000
    N2148    N        0.34672    0.09295    0.53789    1.000
    Si2149   Si       0.37881    0.17985    0.67318    1.000
    Si2150   Si       0.34557    0.24129    0.59694    1.000
    Si2151   Si       0.34419    0.19072    0.54525    1.000
    Si2152   Si       0.36852    0.12428    0.80132    1.000
    Si2153   Si       0.38296    0.03129    0.84044    1.000
    N2154    N        0.34645    0.02998    0.99118    1.000
    N2155    N        0.36613    0.13777    0.84243    1.000
    Si2156   Si       0.36705    0.17912    0.82838    1.000
    N2157    N        0.36434    0.16512    0.78528    1.000
    N2158    N        0.38065    0.21856    0.83489    1.000
    Si2159   Si       0.35205    0.25099    0.84510    1.000
    N2160    N        0.39425    0.24189    0.76870    1.000
    Si2161   Si       0.38979    0.03123    0.91703    1.000
    Si2162   Si       0.36735    0.09870    0.92820    1.000
    Si2163   Si       0.36841    0.06169    0.98023    1.000
    N2164    N        0.39537    0.06465    0.94336    1.000
    N2165    N        0.34859    0.02232    0.90804    1.000
    N2166    N        0.34708    0.09142    0.89293    1.000
    Si2167   Si       0.36020    0.17872    0.99359    1.000
    Si2168   Si       0.36903    0.23899    0.91143    1.000
    N2169    N        0.37882    0.14103    0.92786    1.000
    N2170    N        0.39953    0.18643    0.97378    1.000
    N2171    N        0.34512    0.20502    0.90334    1.000
    N2172    N        0.40261    0.04700    0.87654    1.000
    Si2173   Si       0.34640    0.16689    0.92338    1.000
    Si2174   Si       0.37747    0.28564    0.08531    1.000
    Si2175   Si       0.37284    0.35944    0.07682    1.000
    Si2176   Si       0.37305    0.32348    0.01507    1.000
    N2177    N        0.38590    0.32143    0.05895    1.000
    N2178    N        0.35351    0.28626    0.00792    1.000
    N2179    N        0.36167    0.36348    0.00751    1.000
    N2180    N        0.38389    0.35754    0.11999    1.000
    Si2181   Si       0.38162    0.42851    0.06068    1.000
    N2182    N        0.37082    0.43439    0.01747    1.000
    N2183    N        0.39369    0.50442    0.01034    1.000
    N2184    N        0.38191    0.44631    0.13496    1.000
    Si2185   Si       0.34436    0.40226    0.00406    1.000
    Si2186   Si       0.39896    0.48484    0.11992    1.000
    N2187    N        0.35073    0.45715    0.19236    1.000
    Si2188   Si       0.37103    0.49481    0.19335    1.000
    N2189    N        0.36985    0.30226    0.23743    1.000
    Si2190   Si       0.36988    0.29179    0.19467    1.000
    Si2191   Si       0.35295    0.35805    0.15379    1.000
    N2192    N        0.38003    0.33431    0.17839    1.000
    N2193    N        0.38876    0.49405    0.23354    1.000
    N2194    N        0.34573    0.39450    0.17749    1.000
    Si2195   Si       0.37797    0.42730    0.17515    1.000
    N2196    N        0.36368    0.28751    0.30179    1.000
    N2197    N        0.37149    0.35195    0.27621    1.000
    N2198    N        0.38827    0.30995    0.35739    1.000
    Si2199   Si       0.34532    0.31509    0.27261    1.000
    Si2200   Si       0.36289    0.39533    0.27568    1.000
    N2201    N        0.36196    0.41103    0.31545    1.000
    Si2202   Si       0.39666    0.43523    0.33000    1.000
    Si2203   Si       0.37866    0.50540    0.31065    1.000
    N2204    N        0.39448    0.46739    0.29967    1.000
    N2205    N        0.39520    0.45669    0.36684    1.000
    N2206    N        0.39639    0.41626    0.25429    1.000
    Si2207   Si       0.36413    0.27348    0.37541    1.000
    N2208    N        0.38802    0.32179    0.41979    1.000
    Si2209   Si       0.38472    0.28215    0.47876    1.000
    Si2210   Si       0.35731    0.33739    0.44945    1.000
    N2211    N        0.37428    0.32352    0.48806    1.000
    N2212    N        0.40149    0.44111    0.44965    1.000
    N2213    N        0.38408    0.38521    0.38917    1.000
    Si2214   Si       0.34688    0.39708    0.40648    1.000
    N2215    N        0.37232    0.49860    0.41908    1.000
    Si2216   Si       0.39832    0.49764    0.38249    1.000
    Si2217   Si       0.36674    0.46256    0.44138    1.000
    Si2218   Si       0.40096    0.32932    0.25550    1.000
    Si2219   Si       0.37765    0.33522    0.52757    1.000
    N2220    N        0.39005    0.30947    0.56606    1.000
    Si2221   Si       0.34743    0.31158    0.57793    1.000
    Si2222   Si       0.40158    0.26594    0.55557    1.000
    Si2223   Si       0.36978    0.47404    0.71030    1.000
    N2224    N        0.40068    0.35926    0.62298    1.000
    N2225    N        0.39028    0.44652    0.52520    1.000
    N2226    N        0.35458    0.41168    0.56941    1.000
    Si2227   Si       0.39313    0.41195    0.55086    1.000
    N2228    N        0.35291    0.47371    0.60782    1.000
    Si2229   Si       0.34830    0.44959    0.51475    1.000
    Si2230   Si       0.39560    0.46755    0.61781    1.000
    N2231    N        0.39801    0.32811    0.68223    1.000
    N2232    N        0.34710    0.37482    0.66927    1.000
    Si2233   Si       0.37085    0.34217    0.65023    1.000
    Si2234   Si       0.35249    0.28091    0.70347    1.000
    N2235    N        0.39005    0.26216    0.69661    1.000
    N2236    N        0.37554    0.34976    0.74179    1.000
    Si2237   Si       0.37128    0.40954    0.67306    1.000
    N2238    N        0.35074    0.44122    0.68939    1.000
    N2239    N        0.39900    0.43049    0.64171    1.000
    Si2240   Si       0.40660    0.35843    0.71112    1.000
    N2241    N        0.34031    0.34353    0.54845    1.000
    N2242    N        0.34600    0.32219    0.61994    1.000
    Si2243   Si       0.37531    0.27874    0.77906    1.000
    N2244    N        0.35058    0.27947    0.81460    1.000
    N2245    N        0.37826    0.37319    0.85764    1.000
    N2246    N        0.34462    0.29056    0.74818    1.000
    N2247    N        0.36080    0.48499    0.84251    1.000
    N2248    N        0.35425    0.41391    0.80618    1.000
    Si2249   Si       0.39244    0.39895    0.82590    1.000
    N2250    N        0.37540    0.45910    0.75174    1.000
    N2251    N        0.36102    0.26395    0.94617    1.000
    N2252    N        0.37078    0.26980    0.88056    1.000
    Si2253   Si       0.39900    0.28169    0.96235    1.000
    N2254    N        0.35386    0.42930    0.89565    1.000
    Si2255   Si       0.34025    0.36203    0.87564    1.000
    Si2256   Si       0.37758    0.46785    0.99117    1.000
    Si2257   Si       0.36229    0.40088    0.92901    1.000
    N2258    N        0.40176    0.38799    0.94211    1.000
    Si2259   Si       0.36299    0.47160    0.88234    1.000
    N2260    N        0.34198    0.49864    0.91053    1.000
    Si2261   Si       0.37276    0.61470    0.04944    1.000
    N2262    N        0.35862    0.61953    0.00775    1.000
    N2263    N        0.35838    0.57889    0.06898    1.000
    N2264    N        0.38794    0.52372    0.09113    1.000
    Si2265   Si       0.34617    0.53526    0.10495    1.000
    N2266    N        0.37591    0.69919    0.01804    1.000
    N2267    N        0.35354    0.65341    0.05667    1.000
    Si2268   Si       0.34987    0.66470    0.01229    1.000
    Si2269   Si       0.36957    0.72447    0.11011    1.000
    Si2270   Si       0.35641    0.56508    0.17979    1.000
    Si2271   Si       0.35065    0.60807    0.24254    1.000
    N2272    N        0.39446    0.50949    0.15703    1.000
    N2273    N        0.39975    0.57413    0.17336    1.000
    N2274    N        0.36558    0.65046    0.24622    1.000
    N2275    N        0.38543    0.70174    0.14433    1.000
    Si2276   Si       0.37362    0.66970    0.20810    1.000
    N2277    N        0.39129    0.64331    0.17807    1.000
    N2278    N        0.39854    0.70531    0.21580    1.000
    Si2279   Si       0.38235    0.65901    0.13800    1.000
    N2280    N        0.34202    0.64122    0.12769    1.000
    N2281    N        0.33901    0.56556    0.13771    1.000
    Si2282   Si       0.36406    0.56055    0.35694    1.000
    N2283    N        0.37914    0.51995    0.34981    1.000
    Si2284   Si       0.37673    0.53150    0.25388    1.000
    N2285    N        0.39641    0.58722    0.34497    1.000
    Si2286   Si       0.39395    0.62870    0.35491    1.000
    N2287    N        0.34710    0.51388    0.28072    1.000
    N2288    N        0.38078    0.57701    0.24736    1.000
    N2289    N        0.36852    0.64103    0.31977    1.000
    N2290    N        0.36584    0.72507    0.34920    1.000
    Si2291   Si       0.36283    0.66914    0.28583    1.000
    N2292    N        0.39092    0.70472    0.28639    1.000
    N2293    N        0.35434    0.56351    0.39996    1.000
    Si2294   Si       0.35414    0.60332    0.41725    1.000
    N2295    N        0.38220    0.59885    0.45081    1.000
    Si2296   Si       0.40169    0.74624    0.44677    1.000
    N2297    N        0.36257    0.63068    0.38490    1.000
    N2298    N        0.35326    0.68054    0.47094    1.000
    N2299    N        0.36902    0.73502    0.42026    1.000
    Si2300   Si       0.39571    0.67149    0.46878    1.000
    Si2301   Si       0.35820    0.75343    0.38169    1.000
    Si2302   Si       0.38191    0.60232    0.49292    1.000
    N2303    N        0.36994    0.53203    0.54881    1.000
    Si2304   Si       0.37691    0.55458    0.58492    1.000
    N2305    N        0.35462    0.59147    0.57866    1.000
    Si2306   Si       0.35839    0.66289    0.58027    1.000
    N2307    N        0.36425    0.70477    0.58982    1.000
    Si2308   Si       0.35391    0.73642    0.56223    1.000
    N2309    N        0.39890    0.64283    0.50215    1.000
    N2310    N        0.39985    0.65299    0.57676    1.000
    N2311    N        0.39223    0.75334    0.55441    1.000
    N2312    N        0.36056    0.53950    0.62253    1.000
    Si2313   Si       0.38699    0.52783    0.65516    1.000
    N2314    N        0.36123    0.60745    0.65193    1.000
    Si2315   Si       0.39224    0.59949    0.73035    1.000
    N2316    N        0.35103    0.59279    0.71896    1.000
    N2317    N        0.36262    0.51109    0.68636    1.000
    Si2318   Si       0.40191    0.60258    0.66009    1.000
    N2319    N        0.34890    0.66361    0.69828    1.000
    Si2320   Si       0.39054    0.66364    0.68706    1.000
    N2321    N        0.36922    0.74404    0.64724    1.000
    Si2322   Si       0.39063    0.71379    0.62434    1.000
    N2323    N        0.39887    0.67517    0.64474    1.000
    N2324    N        0.35274    0.72011    0.73631    1.000
    N2325    N        0.38368    0.53877    0.79278    1.000
    Si2326   Si       0.39052    0.51562    0.83014    1.000
    Si2327   Si       0.36400    0.63126    0.79310    1.000
    Si2328   Si       0.34553    0.55814    0.79297    1.000
    N2329    N        0.39895    0.61743    0.77111    1.000
    Si2330   Si       0.36420    0.69314    0.82243    1.000
    N2331    N        0.35899    0.67163    0.78511    1.000
    N2332    N        0.35064    0.73471    0.81040    1.000
    N2333    N        0.39066    0.64169    0.83177    1.000
    Si2334   Si       0.39177    0.75147    0.80087    1.000
    Si2335   Si       0.38462    0.69356    0.75375    1.000
    Si2336   Si       0.37387    0.58900    0.98367    1.000
    N2337    N        0.37869    0.61279    0.94652    1.000
    N2338    N        0.35560    0.57055    0.89643    1.000
    Si2339   Si       0.35136    0.51898    0.94868    1.000
    N2340    N        0.34885    0.55583    0.97331    1.000
    Si2341   Si       0.39517    0.55250    0.89977    1.000
    N2342    N        0.39536    0.52222    0.93931    1.000
    Si2343   Si       0.36920    0.72395    0.98016    1.000
    N2344    N        0.37725    0.73513    0.93398    1.000
    Si2345   Si       0.36812    0.65429    0.93237    1.000
    N2346    N        0.35469    0.67569    0.96627    1.000
    N2347    N        0.39983    0.67216    0.90684    1.000
    N2348    N        0.40075    0.70435    0.84391    1.000
    Si2349   Si       0.36852    0.79555    0.09432    1.000
    N2350    N        0.36636    0.79050    0.05006    1.000
    Si2351   Si       0.36301    0.86005    0.07356    1.000
    N2352    N        0.34841    0.83195    0.10287    1.000
    Si2353   Si       0.40152    0.79388    0.02181    1.000
    N2354    N        0.35790    0.76454    0.12128    1.000
    Si2355   Si       0.35039    0.94492    0.22615    1.000
    Si2356   Si       0.36545    0.92080    0.04010    1.000
    N2357    N        0.37454    0.96225    0.04414    1.000
    N2358    N        0.35808    0.90146    0.07847    1.000
    N2359    N        0.39171    0.89855    0.01238    1.000
    N2360    N        0.36233    0.96623    0.11669    1.000
    N2361    N        0.34352    0.96924    0.18725    1.000
    Si2362   Si       0.33989    0.93249    0.10358    1.000
    Si2363   Si       0.36114    0.82681    0.19898    1.000
    N2364    N        0.38038    0.84376    0.23343    1.000
    N2365    N        0.39729    0.82184    0.17679    1.000
    N2366    N        0.34553    0.78708    0.19535    1.000
    Si2367   Si       0.39193    0.01043    0.22490    1.000
    N2368    N        0.38006    0.97268    0.24300    1.000
    N2369    N        0.36909    0.91262    0.20413    1.000
    Si2370   Si       0.36803    0.94722    0.15673    1.000
    N2371    N        0.34075    0.91521    0.14616    1.000
    N2372    N        0.38683    0.81709    0.30630    1.000
    N2373    N        0.37395    0.86602    0.36111    1.000
    Si2374   Si       0.36370    0.83354    0.27042    1.000
    Si2375   Si       0.35704    0.84100    0.32832    1.000
    N2376    N        0.35213    0.86743    0.29426    1.000
    Si2377   Si       0.35726    0.91055    0.29366    1.000
    Si2378   Si       0.37614    0.90920    0.36440    1.000
    N2379    N        0.38208    0.99985    0.31668    1.000
    N2380    N        0.34731    0.92451    0.33637    1.000
    Si2381   Si       0.36007    0.94796    0.49250    1.000
    N2382    N        0.36231    0.79762    0.38222    1.000
    N2383    N        0.36426    0.85317    0.42719    1.000
    Si2384   Si       0.38209    0.83598    0.39211    1.000
    N2385    N        0.38302    0.77239    0.47647    1.000
    Si2386   Si       0.39537    0.86379    0.45358    1.000
    N2387    N        0.37906    0.86371    0.49341    1.000
    Si2388   Si       0.36156    0.00962    0.46910    1.000
    N2389    N        0.37177    0.92627    0.40474    1.000
    N2390    N        0.38134    0.96770    0.46127    1.000
    Si2391   Si       0.40135    0.94089    0.43205    1.000
    Si2392   Si       0.34471    0.76347    0.49248    1.000
    Si2393   Si       0.38363    0.84743    0.58413    1.000
    N2394    N        0.34635    0.83651    0.57103    1.000
    N2395    N        0.40166    0.87865    0.56083    1.000
    N2396    N        0.38536    0.93386    0.52309    1.000
    Si2397   Si       0.36742    0.90814    0.55298    1.000
    N2398    N        0.35925    0.93220    0.58574    1.000
    Si2399   Si       0.38539    0.93202    0.61964    1.000
    Si2400   Si       0.35950    0.93788    0.68985    1.000
    N2401    N        0.38655    0.85777    0.62536    1.000
    Si2402   Si       0.38920    0.76687    0.67705    1.000
    N2403    N        0.37354    0.85206    0.68827    1.000
    N2404    N        0.36224    0.78581    0.70685    1.000
    Si2405   Si       0.35676    0.87080    0.65396    1.000
    Si2406   Si       0.35092    0.76328    0.74386    1.000
    Si2407   Si       0.34667    0.82702    0.71226    1.000
    Si2408   Si       0.38965    0.00013    0.64882    1.000
    N2409    N        0.36288    0.91387    0.65189    1.000
    N2410    N        0.38372    0.97422    0.68471    1.000
    N2411    N        0.37687    0.91149    0.71876    1.000
    Si2412   Si       0.39509    0.98489    0.72463    1.000
    N2413    N        0.34315    0.00245    0.57679    1.000
    N2414    N        0.40392    0.97149    0.61681    1.000
    Si2415   Si       0.36507    0.84637    0.84582    1.000
    Si2416   Si       0.38500    0.82551    0.77275    1.000
    N2417    N        0.37947    0.78205    0.77149    1.000
    N2418    N        0.39365    0.83034    0.81659    1.000
    N2419    N        0.34887    0.84021    0.75452    1.000
    N2420    N        0.35170    0.81212    0.86702    1.000
    N2421    N        0.36058    0.96920    0.74438    1.000
    N2422    N        0.38376    0.91879    0.78405    1.000
    N2423    N        0.37874    0.98971    0.84637    1.000
    Si2424   Si       0.36307    0.91324    0.82285    1.000
    N2425    N        0.39797    0.92374    0.84642    1.000
    Si2426   Si       0.35657    0.92595    0.75245    1.000
    N2427    N        0.38251    0.86894    0.87918    1.000
    N2428    N        0.39074    0.82787    0.92784    1.000
    Si2429   Si       0.35255    0.82064    0.91000    1.000
    N2430    N        0.36722    0.94217    0.89904    1.000
    Si2431   Si       0.34988    0.96701    0.86892    1.000
    Si2432   Si       0.39239    0.90974    0.88654    1.000
    N2433    N        0.37378    0.96024    0.97226    1.000
    N2434    N        0.35815    0.90118    0.95017    1.000
    Si2435   Si       0.38974    0.91867    0.97441    1.000
    N2436    N        0.39324    0.75895    0.99660    1.000
    Si2437   Si       0.42423    0.02659    0.10800    1.000
    N2438    N        0.44408    0.06638    0.11071    1.000
    Si2439   Si       0.42643    0.04341    0.02631    1.000
    N2440    N        0.41753    0.02100    0.06435    1.000
    Si2441   Si       0.40457    0.11624    0.01042    1.000
    N2442    N        0.42310    0.12518    0.04773    1.000
    N2443    N        0.44846    0.14886    0.24862    1.000
    Si2444   Si       0.45486    0.13885    0.07356    1.000
    N2445    N        0.43574    0.14041    0.11370    1.000
    N2446    N        0.42848    0.20907    0.03789    1.000
    N2447    N        0.42527    0.21850    0.10944    1.000
    Si2448   Si       0.42925    0.18139    0.13226    1.000
    Si2449   Si       0.43964    0.25880    0.12093    1.000
    Si2450   Si       0.43860    0.10121    0.13723    1.000
    N2451    N        0.44126    0.06963    0.21312    1.000
    Si2452   Si       0.40203    0.06804    0.23368    1.000
    N2453    N        0.44492    0.22024    0.21592    1.000
    Si2454   Si       0.43451    0.19020    0.24430    1.000
    Si2455   Si       0.40324    0.21202    0.07206    1.000
    Si2456   Si       0.44310    0.08106    0.32791    1.000
    N2457    N        0.44063    0.03640    0.32763    1.000
    Si2458   Si       0.42167    0.12407    0.27277    1.000
    N2459    N        0.40824    0.10134    0.34099    1.000
    N2460    N        0.45278    0.09709    0.28778    1.000
    Si2461   Si       0.41724    0.01324    0.29746    1.000
    N2462    N        0.40574    0.03533    0.26104    1.000
    Si2463   Si       0.41958    0.17781    0.44797    1.000
    Si2464   Si       0.41943    0.22179    0.30994    1.000
    N2465    N        0.41509    0.20371    0.34789    1.000
    N2466    N        0.45056    0.20813    0.28210    1.000
    Si2467   Si       0.41030    0.14727    0.33896    1.000
    N2468    N        0.44840    0.14979    0.36134    1.000
    N2469    N        0.40176    0.15514    0.29752    1.000
    N2470    N        0.44019    0.02977    0.39865    1.000
    Si2471   Si       0.43606    0.11776    0.48639    1.000
    N2472    N        0.45823    0.01557    0.46803    1.000
    N2473    N        0.41506    0.13462    0.45317    1.000
    Si2474   Si       0.44030    0.18794    0.38077    1.000
    N2475    N        0.40586    0.18886    0.40807    1.000
    Si2476   Si       0.46070    0.01743    0.36033    1.000
    Si2477   Si       0.42676    0.07387    0.54500    1.000
    N2478    N        0.45349    0.10067    0.57001    1.000
    N2479    N        0.45651    0.04888    0.52723    1.000
    N2480    N        0.40844    0.09426    0.51153    1.000
    Si2481   Si       0.42921    0.12841    0.59420    1.000
    N2482    N        0.42613    0.17135    0.58280    1.000
    Si2483   Si       0.42627    0.18105    0.53975    1.000
    N2484    N        0.44521    0.15068    0.51413    1.000
    Si2485   Si       0.41369    0.20610    0.60535    1.000
    N2486    N        0.45182    0.22520    0.61990    1.000
    N2487    N        0.44199    0.08873    0.68792    1.000
    N2488    N        0.42426    0.02321    0.66077    1.000
    Si2489   Si       0.41519    0.05437    0.69104    1.000
    N2490    N        0.41372    0.02727    0.72881    1.000
    Si2491   Si       0.43315    0.12739    0.66781    1.000
    N2492    N        0.45578    0.12889    0.62943    1.000
    N2493    N        0.45319    0.16374    0.68344    1.000
    N2494    N        0.44141    0.22170    0.72057    1.000
    N2495    N        0.40586    0.19917    0.64711    1.000
    Si2496   Si       0.44921    0.20157    0.65733    1.000
    Si2497   Si       0.45591    0.18120    0.72365    1.000
    Si2498   Si       0.39770    0.23167    0.72586    1.000
    N2499    N        0.42480    0.16094    0.74786    1.000
    Si2500   Si       0.43067    0.07687    0.80837    1.000
    N2501    N        0.40910    0.11366    0.79618    1.000
    Si2502   Si       0.43062    0.03025    0.76753    1.000
    N2503    N        0.40764    0.03925    0.80601    1.000
    N2504    N        0.45287    0.08461    0.84381    1.000
    N2505    N        0.40900    0.25112    0.99179    1.000
    Si2506   Si       0.41185    0.22068    0.80285    1.000
    Si2507   Si       0.43599    0.14484    0.78505    1.000
    N2508    N        0.43188    0.18150    0.80961    1.000
    N2509    N        0.43946    0.25141    0.81322    1.000
    N2510    N        0.45564    0.06565    0.77603    1.000
    N2511    N        0.45623    0.21304    0.86650    1.000
    N2512    N        0.44565    0.10020    0.90992    1.000
    N2513    N        0.42389    0.12049    0.97079    1.000
    Si2514   Si       0.44052    0.06793    0.88198    1.000
    Si2515   Si       0.43519    0.08486    0.95143    1.000
    N2516    N        0.46264    0.03402    0.90523    1.000
    Si2517   Si       0.42663    0.21205    0.99397    1.000
    Si2518   Si       0.41498    0.15464    0.94769    1.000
    N2519    N        0.41271    0.24187    0.91507    1.000
    Si2520   Si       0.44497    0.21197    0.90991    1.000
    N2521    N        0.44648    0.17078    0.92380    1.000
    N2522    N        0.44976    0.34263    0.09229    1.000
    Si2523   Si       0.44262    0.37737    0.06166    1.000
    N2524    N        0.40053    0.46391    0.07496    1.000
    N2525    N        0.40842    0.29000    0.11579    1.000
    Si2526   Si       0.45165    0.32575    0.99614    1.000
    Si2527   Si       0.44390    0.45804    0.08300    1.000
    N2528    N        0.45169    0.48019    0.04598    1.000
    Si2529   Si       0.40490    0.50635    0.05352    1.000
    N2530    N        0.44278    0.48167    0.11869    1.000
    Si2531   Si       0.42603    0.39667    0.23121    1.000
    Si2532   Si       0.44448    0.25862    0.19520    1.000
    Si2533   Si       0.41814    0.33107    0.12328    1.000
    N2534    N        0.44410    0.34262    0.15728    1.000
    N2535    N        0.42666    0.35253    0.22932    1.000
    Si2536   Si       0.41527    0.35693    0.18649    1.000
    N2537    N        0.40473    0.26958    0.18745    1.000
    N2538    N        0.41022    0.39985    0.18927    1.000
    N2539    N        0.40080    0.38991    0.06482    1.000
    N2540    N        0.42750    0.31117    0.28387    1.000
    Si2541   Si       0.40310    0.29712    0.31768    1.000
    N2542    N        0.42835    0.26209    0.32478    1.000
    Si2543   Si       0.45839    0.27607    0.35592    1.000
    Si2544   Si       0.44327    0.43207    0.44612    1.000
    N2545    N        0.43357    0.41256    0.33490    1.000
    Si2546   Si       0.40283    0.46094    0.25796    1.000
    N2547    N        0.44023    0.35862    0.38033    1.000
    N2548    N        0.42307    0.27972    0.46018    1.000
    N2549    N        0.45069    0.28819    0.39741    1.000
    Si2550   Si       0.41314    0.28695    0.41866    1.000
    Si2551   Si       0.45471    0.29934    0.47962    1.000
    N2552    N        0.45192    0.42930    0.40402    1.000
    Si2553   Si       0.42538    0.40279    0.37836    1.000
    N2554    N        0.44608    0.46964    0.25069    1.000
    N2555    N        0.46309    0.46888    0.46164    1.000
    Si2556   Si       0.39720    0.34253    0.38247    1.000
    Si2557   Si       0.43893    0.35513    0.54277    1.000
    Si2558   Si       0.41504    0.32382    0.60074    1.000
    N2559    N        0.45099    0.33392    0.57875    1.000
    N2560    N        0.44787    0.33205    0.50617    1.000
    N2561    N        0.44298    0.26501    0.56335    1.000
    N2562    N        0.40019    0.37137    0.53544    1.000
    Si2563   Si       0.45377    0.26538    0.60644    1.000
    N2564    N        0.41782    0.47826    0.58055    1.000
    Si2565   Si       0.42247    0.47338    0.53854    1.000
    N2566    N        0.42477    0.41097    0.58018    1.000
    N2567    N        0.45794    0.44876    0.53220    1.000
    N2568    N        0.42546    0.29115    0.62808    1.000
    N2569    N        0.43692    0.34417    0.73665    1.000
    Si2570   Si       0.41869    0.29074    0.67279    1.000
    N2571    N        0.45577    0.28873    0.69524    1.000
    Si2572   Si       0.41956    0.46169    0.74506    1.000
    N2573    N        0.40910    0.39723    0.69415    1.000
    Si2574   Si       0.42130    0.39676    0.62052    1.000
    N2575    N        0.41659    0.50036    0.63950    1.000
    N2576    N        0.41391    0.46549    0.70061    1.000
    N2577    N        0.45921    0.39671    0.64341    1.000
    Si2578   Si       0.42989    0.42936    0.67595    1.000
    Si2579   Si       0.44090    0.48900    0.67543    1.000
    Si2580   Si       0.43237    0.29328    0.82046    1.000
    Si2581   Si       0.40837    0.34397    0.77035    1.000
    N2582    N        0.43353    0.29814    0.86405    1.000
    N2583    N        0.40514    0.30762    0.79131    1.000
    N2584    N        0.41589    0.37682    0.79642    1.000
    Si2585   Si       0.43477    0.46322    0.85488    1.000
    N2586    N        0.42789    0.42633    0.83204    1.000
    N2587    N        0.42950    0.49385    0.82590    1.000
    Si2588   Si       0.44863    0.40635    0.79816    1.000
    N2589    N        0.44868    0.43590    0.76633    1.000
    N2590    N        0.43469    0.50047    0.75915    1.000
    Si2591   Si       0.45895    0.50474    0.79396    1.000
    Si2592   Si       0.40996    0.28290    0.89538    1.000
    N2593    N        0.40795    0.31758    0.98902    1.000
    Si2594   Si       0.41229    0.34472    0.95249    1.000
    N2595    N        0.45506    0.35724    0.96068    1.000
    N2596    N        0.41062    0.30913    0.92693    1.000
    N2597    N        0.40621    0.47078    0.88619    1.000
    N2598    N        0.45485    0.42325    0.99255    1.000
    Si2599   Si       0.42935    0.42233    0.95564    1.000
    Si2600   Si       0.41390    0.48361    0.92703    1.000
    N2601    N        0.45747    0.48241    0.93022    1.000
    N2602    N        0.45903    0.41643    0.92345    1.000
    N2603    N        0.40199    0.45695    0.95775    1.000
    Si2604   Si       0.43961    0.58132    0.02381    1.000
    N2605    N        0.41433    0.60476    0.05296    1.000
    N2606    N        0.43087    0.54290    0.04698    1.000
    N2607    N        0.42875    0.56956    0.11445    1.000
    Si2608   Si       0.40486    0.56454    0.07759    1.000
    Si2609   Si       0.43272    0.64140    0.07265    1.000
    N2610    N        0.43426    0.67261    0.04434    1.000
    N2611    N        0.44546    0.73072    0.02408    1.000
    Si2612   Si       0.41084    0.71154    0.04306    1.000
    N2613    N        0.40797    0.64930    0.10626    1.000
    N2614    N        0.45316    0.75495    0.20701    1.000
    N2615    N        0.40395    0.73098    0.08109    1.000
    N2616    N        0.44528    0.54623    0.23474    1.000
    Si2617   Si       0.41921    0.54424    0.14823    1.000
    Si2618   Si       0.42279    0.61243    0.17839    1.000
    N2619    N        0.43817    0.61143    0.21899    1.000
    N2620    N        0.45656    0.62222    0.15484    1.000
    N2621    N        0.46009    0.53234    0.16324    1.000
    N2622    N        0.43368    0.75037    0.14777    1.000
    N2623    N        0.45377    0.69385    0.18019    1.000
    Si2624   Si       0.41667    0.71861    0.17197    1.000
    Si2625   Si       0.42803    0.75919    0.10508    1.000
    N2626    N        0.43482    0.59350    0.28711    1.000
    Si2627   Si       0.42040    0.56744    0.31678    1.000
    N2628    N        0.45227    0.54984    0.34185    1.000
    N2629    N        0.40450    0.53481    0.28941    1.000
    Si2630   Si       0.42288    0.58071    0.24710    1.000
    N2631    N        0.41687    0.65055    0.43807    1.000
    Si2632   Si       0.40580    0.71928    0.32569    1.000
    N2633    N        0.44251    0.69578    0.32246    1.000
    Si2634   Si       0.41471    0.72118    0.25468    1.000
    N2635    N        0.42138    0.75815    0.33206    1.000
    N2636    N        0.42774    0.65062    0.37141    1.000
    Si2637   Si       0.45095    0.54950    0.38427    1.000
    N2638    N        0.44143    0.58330    0.41024    1.000
    Si2639   Si       0.42396    0.60888    0.43946    1.000
    N2640    N        0.43639    0.51095    0.39905    1.000
    N2641    N        0.45986    0.60427    0.46757    1.000
    N2642    N        0.41598    0.70991    0.46774    1.000
    N2643    N        0.44112    0.71066    0.39875    1.000
    Si2644   Si       0.44193    0.66968    0.40952    1.000
    N2645    N        0.41944    0.54548    0.58086    1.000
    Si2646   Si       0.45124    0.60120    0.51244    1.000
    N2647    N        0.41197    0.58164    0.51692    1.000
    N2648    N        0.43213    0.51219    0.51892    1.000
    Si2649   Si       0.41019    0.54351    0.53746    1.000
    Si2650   Si       0.43778    0.51177    0.60139    1.000
    N2651    N        0.45712    0.63321    0.54021    1.000
    Si2652   Si       0.42371    0.65256    0.61284    1.000
    N2653    N        0.43009    0.69977    0.53601    1.000
    N2654    N        0.42968    0.72226    0.60814    1.000
    Si2655   Si       0.41902    0.65785    0.53792    1.000
    Si2656   Si       0.42690    0.73077    0.56482    1.000
    Si2657   Si       0.44488    0.71996    0.49833    1.000
    N2658    N        0.42802    0.74567    0.68828    1.000
    N2659    N        0.41092    0.56128    0.67047    1.000
    N2660    N        0.43556    0.61666    0.63633    1.000
    Si2661   Si       0.44486    0.55964    0.69872    1.000
    N2662    N        0.42021    0.56635    0.73345    1.000
    N2663    N        0.41044    0.68742    0.72044    1.000
    Si2664   Si       0.44709    0.70772    0.70511    1.000
    N2665    N        0.46377    0.66632    0.60200    1.000
    N2666    N        0.40494    0.62500    0.69664    1.000
    Si2667   Si       0.44162    0.56073    0.83652    1.000
    Si2668   Si       0.41892    0.54030    0.76759    1.000
    N2669    N        0.44373    0.60451    0.83464    1.000
    N2670    N        0.45280    0.55034    0.79504    1.000
    Si2671   Si       0.42516    0.63022    0.80442    1.000
    Si2672   Si       0.41135    0.71242    0.92133    1.000
    Si2673   Si       0.43525    0.73239    0.84791    1.000
    Si2674   Si       0.45094    0.70244    0.78056    1.000
    N2675    N        0.40970    0.71869    0.77782    1.000
    Si2676   Si       0.41234    0.66797    0.86554    1.000
    N2677    N        0.45346    0.65934    0.79001    1.000
    N2678    N        0.45496    0.66640    0.86486    1.000
    Si2679   Si       0.43355    0.74429    0.98336    1.000
    N2680    N        0.41592    0.57552    0.98607    1.000
    Si2681   Si       0.42176    0.60269    0.94983    1.000
    N2682    N        0.42835    0.57665    0.91581    1.000
    N2683    N        0.45467    0.52409    0.98733    1.000
    Si2684   Si       0.41232    0.53065    0.98096    1.000
    N2685    N        0.44641    0.63334    0.96393    1.000
    N2686    N        0.43125    0.70779    0.96022    1.000
    N2687    N        0.43963    0.72454    0.89176    1.000
    Si2688   Si       0.45712    0.67585    0.96362    1.000
    N2689    N        0.40408    0.54608    0.85737    1.000
    Si2690   Si       0.43276    0.82895    0.07759    1.000
    N2691    N        0.41231    0.80108    0.10689    1.000
    N2692    N        0.43784    0.79666    0.04382    1.000
    Si2693   Si       0.41545    0.86368    0.01827    1.000
    N2694    N        0.45723    0.81622    0.16332    1.000
    N2695    N        0.42084    0.86231    0.12317    1.000
    Si2696   Si       0.41182    0.98385    0.04208    1.000
    N2697    N        0.44564    0.95814    0.04355    1.000
    N2698    N        0.41602    0.00603    0.00211    1.000
    N2699    N        0.45592    0.92331    0.10543    1.000
    N2700    N        0.45337    0.99454    0.11933    1.000
    Si2701   Si       0.42096    0.82538    0.14250    1.000
    N2702    N        0.43383    0.87417    0.19413    1.000
    Si2703   Si       0.41742    0.83759    0.21097    1.000
    N2704    N        0.44414    0.82264    0.23972    1.000
    Si2705   Si       0.45282    0.77899    0.24167    1.000
    N2706    N        0.42948    0.00258    0.20224    1.000
    N2707    N        0.41159    0.94268    0.16137    1.000
    N2708    N        0.43577    0.93539    0.22637    1.000
    Si2709   Si       0.44679    0.95228    0.13748    1.000
    Si2710   Si       0.41213    0.91252    0.19603    1.000
    Si2711   Si       0.45376    0.96627    0.20067    1.000
    N2712    N        0.40171    0.85163    0.05732    1.000
    Si2713   Si       0.41842    0.78945    0.30160    1.000
    N2714    N        0.44206    0.86862    0.33382    1.000
    N2715    N        0.41960    0.76330    0.26500    1.000
    N2716    N        0.45884    0.80304    0.31245    1.000
    Si2717   Si       0.41303    0.95028    0.26072    1.000
    Si2718   Si       0.43080    0.90799    0.31648    1.000
    N2719    N        0.43885    0.97650    0.28377    1.000
    N2720    N        0.41454    0.92617    0.35364    1.000
    Si2721   Si       0.45156    0.90834    0.47298    1.000
    Si2722   Si       0.45338    0.86708    0.37448    1.000
    N2723    N        0.42064    0.82757    0.45886    1.000
    N2724    N        0.42713    0.83884    0.39442    1.000
    Si2725   Si       0.44016    0.81053    0.42421    1.000
    N2726    N        0.43219    0.76893    0.42665    1.000
    Si2727   Si       0.41700    0.79555    0.48914    1.000
    N2728    N        0.41484    0.90201    0.44979    1.000
    Si2729   Si       0.43302    0.00516    0.43457    1.000
    N2730    N        0.43128    0.96655    0.41395    1.000
    Si2731   Si       0.44528    0.94484    0.37848    1.000
    N2732    N        0.44859    0.94915    0.49261    1.000
    N2733    N        0.39945    0.92161    0.28868    1.000
    N2734    N        0.44704    0.76514    0.49458    1.000
    Si2735   Si       0.41542    0.78881    0.55965    1.000
    Si2736   Si       0.41343    0.85974    0.51994    1.000
    N2737    N        0.41837    0.81632    0.52688    1.000
    N2738    N        0.45281    0.76470    0.56132    1.000
    N2739    N        0.44827    0.87916    0.50482    1.000
    N2740    N        0.40597    0.80903    0.59435    1.000
    Si2741   Si       0.45484    0.01018    0.54823    1.000
    Si2742   Si       0.43741    0.89981    0.57658    1.000
    Si2743   Si       0.42515    0.95244    0.52786    1.000
    Si2744   Si       0.44451    0.96164    0.60511    1.000
    N2745    N        0.44643    0.93981    0.56365    1.000
    N2746    N        0.41477    0.99358    0.54185    1.000
    N2747    N        0.42492    0.91327    0.61641    1.000
    N2748    N        0.46109    0.00151    0.59196    1.000
    N2749    N        0.42817    0.95934    0.73873    1.000
    Si2750   Si       0.40190    0.87640    0.71261    1.000
    N2751    N        0.43919    0.88333    0.68719    1.000
    N2752    N        0.41635    0.79821    0.66407    1.000
    N2753    N        0.45252    0.84979    0.62862    1.000
    Si2754   Si       0.45367    0.77968    0.67605    1.000
    Si2755   Si       0.41654    0.82541    0.63084    1.000
    Si2756   Si       0.44762    0.89033    0.64535    1.000
    Si2757   Si       0.42770    0.81189    0.83083    1.000
    N2758    N        0.41953    0.76927    0.82862    1.000
    Si2759   Si       0.45557    0.85801    0.77043    1.000
    N2760    N        0.43767    0.82659    0.87195    1.000
    Si2761   Si       0.44749    0.99464    0.90032    1.000
    N2762    N        0.41467    0.85186    0.74981    1.000
    Si2763   Si       0.42302    0.93367    0.77509    1.000
    N2764    N        0.42950    0.96672    0.80194    1.000
    N2765    N        0.44740    0.98109    0.85937    1.000
    Si2766   Si       0.41331    0.96310    0.84082    1.000
    N2767    N        0.45569    0.90243    0.77731    1.000
    Si2768   Si       0.41720    0.85430    0.90259    1.000
    N2769    N        0.44507    0.78106    0.96262    1.000
    Si2770   Si       0.42055    0.81430    0.95562    1.000
    N2771    N        0.45189    0.84059    0.93244    1.000
    N2772    N        0.40549    0.82796    0.99428    1.000
    Si2773   Si       0.45429    0.92290    0.93580    1.000
    Si2774   Si       0.41266    0.97813    0.96727    1.000
    N2775    N        0.42859    0.93654    0.96774    1.000
    N2776    N        0.42858    0.89935    0.90717    1.000
    N2777    N        0.41207    0.99600    0.92766    1.000
    N2778    N        0.45928    0.83306    0.80662    1.000
    N2779    N        0.50471    0.04104    0.09449    1.000
    N2780    N        0.48805    0.10819    0.07638    1.000
    Si2781   Si       0.47465    0.06634    0.07693    1.000
    Si2782   Si       0.49370    0.07400    0.00402    1.000
    N2783    N        0.46573    0.06104    0.03546    1.000
    N2784    N        0.49897    0.23485    0.04423    1.000
    N2785    N        0.47888    0.17438    0.06730    1.000
    N2786    N        0.50502    0.21861    0.11092    1.000
    Si2787   Si       0.47228    0.20207    0.03511    1.000
    Si2788   Si       0.50115    0.25080    0.08290    1.000
    Si2789   Si       0.51318    0.17829    0.09476    1.000
    N2790    N        0.50133    0.09823    0.23764    1.000
    N2791    N        0.49525    0.05217    0.18720    1.000
    Si2792   Si       0.47745    0.08980    0.20079    1.000
    N2793    N        0.47260    0.11256    0.16507    1.000
    Si2794   Si       0.46361    0.03010    0.21332    1.000
    N2795    N        0.51939    0.10664    0.01490    1.000
    N2796    N        0.46509    0.25272    0.15722    1.000
    Si2797   Si       0.49132    0.15158    0.16370    1.000
    Si2798   Si       0.49235    0.22053    0.15218    1.000
    N2799    N        0.50413    0.15820    0.20459    1.000
    N2800    N        0.46678    0.18550    0.15290    1.000
    Si2801   Si       0.49046    0.14053    0.24249    1.000
    N2802    N        0.47759    0.09044    0.35351    1.000
    Si2803   Si       0.49004    0.07321    0.27360    1.000
    N2804    N        0.48280    0.03426    0.25623    1.000
    Si2805   Si       0.51180    0.06601    0.34742    1.000
    N2806    N        0.50358    0.02600    0.36332    1.000
    Si2807   Si       0.49422    0.20278    0.27977    1.000
    N2808    N        0.51042    0.16248    0.27314    1.000
    N2809    N        0.51699    0.21030    0.31562    1.000
    N2810    N        0.49469    0.25223    0.36256    1.000
    Si2811   Si       0.51640    0.25312    0.32357    1.000
    Si2812   Si       0.48643    0.13069    0.37173    1.000
    N2813    N        0.46943    0.09333    0.47161    1.000
    Si2814   Si       0.50192    0.11657    0.45456    1.000
    Si2815   Si       0.47556    0.05349    0.48603    1.000
    N2816    N        0.51882    0.04582    0.47137    1.000
    N2817    N        0.47362    0.20183    0.40113    1.000
    N2818    N        0.50607    0.15629    0.47540    1.000
    N2819    N        0.49264    0.13602    0.41656    1.000
    Si2820   Si       0.50419    0.23208    0.40109    1.000
    Si2821   Si       0.49014    0.17866    0.43423    1.000
    N2822    N        0.45800    0.19106    0.46211    1.000
    N2823    N        0.52075    0.06905    0.30522    1.000
    N2824    N        0.50708    0.22138    0.24219    1.000
    Si2825   Si       0.49610    0.08935    0.56951    1.000
    N2826    N        0.50746    0.05687    0.59645    1.000
    N2827    N        0.51430    0.08163    0.53021    1.000
    Si2828   Si       0.50043    0.01398    0.60352    1.000
    N2829    N        0.51481    0.12412    0.59004    1.000
    Si2830   Si       0.47414    0.25061    0.53614    1.000
    N2831    N        0.51056    0.24266    0.55935    1.000
    Si2832   Si       0.47707    0.18035    0.50039    1.000
    N2833    N        0.49977    0.25020    0.73661    1.000
    N2834    N        0.49809    0.02298    0.64798    1.000
    N2835    N        0.49286    0.11210    0.73232    1.000
    Si2836   Si       0.48478    0.09274    0.69375    1.000
    N2837    N        0.51069    0.10255    0.65927    1.000
    N2838    N        0.51008    0.05817    0.70592    1.000
    Si2839   Si       0.51187    0.01794    0.69272    1.000
    Si2840   Si       0.51804    0.06363    0.63837    1.000
    Si2841   Si       0.46993    0.24989    0.70656    1.000
    Si2842   Si       0.49859    0.13376    0.63085    1.000
    N2843    N        0.48524    0.22452    0.67338    1.000
    N2844    N        0.49488    0.17929    0.74199    1.000
    N2845    N        0.45882    0.20917    0.52792    1.000
    Si2846   Si       0.48017    0.11459    0.83398    1.000
    Si2847   Si       0.48979    0.04062    0.78724    1.000
    N2848    N        0.49355    0.02390    0.82853    1.000
    Si2849   Si       0.51417    0.03117    0.86735    1.000
    N2850    N        0.47589    0.13378    0.79546    1.000
    Si2851   Si       0.50144    0.14063    0.76195    1.000
    N2852    N        0.49669    0.20754    0.81954    1.000
    Si2853   Si       0.47356    0.24176    0.83690    1.000
    N2854    N        0.46775    0.14693    0.86013    1.000
    Si2855   Si       0.46483    0.18189    0.83686    1.000
    Si2856   Si       0.49881    0.21394    0.96258    1.000
    Si2857   Si       0.49308    0.04805    0.93309    1.000
    N2858    N        0.47387    0.06938    0.96590    1.000
    N2859    N        0.51801    0.06263    0.89978    1.000
    N2860    N        0.51158    0.13357    0.90885    1.000
    N2861    N        0.50929    0.01093    0.94990    1.000
    N2862    N        0.48196    0.22912    0.92603    1.000
    N2863    N        0.46890    0.20406    0.99165    1.000
    Si2864   Si       0.50567    0.25010    0.89729    1.000
    Si2865   Si       0.46704    0.13841    0.90346    1.000
    Si2866   Si       0.48582    0.31761    0.09189    1.000
    N2867    N        0.46871    0.27628    0.09296    1.000
    N2868    N        0.51353    0.32982    0.06011    1.000
    N2869    N        0.46708    0.40562    0.23117    1.000
    Si2870   Si       0.46954    0.44387    0.02847    1.000
    N2871    N        0.51112    0.45369    0.02896    1.000
    N2872    N        0.51053    0.50744    0.12046    1.000
    N2873    N        0.50558    0.32377    0.12939    1.000
    N2874    N        0.49536    0.34706    0.19973    1.000
    Si2875   Si       0.48549    0.35134    0.15517    1.000
    Si2876   Si       0.46485    0.32942    0.22997    1.000
    N2877    N        0.46439    0.28643    0.22492    1.000
    Si2878   Si       0.49983    0.26304    0.23978    1.000
    Si2879   Si       0.51045    0.47904    0.20563    1.000
    Si2880   Si       0.47462    0.49582    0.14456    1.000
    Si2881   Si       0.50482    0.42724    0.15443    1.000
    N2882    N        0.51755    0.45348    0.24345    1.000
    N2883    N        0.48849    0.46328    0.17103    1.000
    N2884    N        0.49328    0.39085    0.13434    1.000
    Si2885   Si       0.50503    0.38503    0.21885    1.000
    N2886    N        0.45813    0.35888    0.02360    1.000
    N2887    N        0.45709    0.41859    0.06256    1.000
    N2888    N        0.48909    0.33514    0.26598    1.000
    Si2889   Si       0.46949    0.30424    0.29205    1.000
    N2890    N        0.50002    0.27252    0.28615    1.000
    N2891    N        0.46832    0.31215    0.33621    1.000
    Si2892   Si       0.47683    0.34412    0.36296    1.000
    N2893    N        0.49621    0.37759    0.34234    1.000
    N2894    N        0.49655    0.44653    0.35373    1.000
    N2895    N        0.49104    0.42761    0.29236    1.000
    Si2896   Si       0.47584    0.41361    0.32977    1.000
    Si2897   Si       0.50381    0.47687    0.32340    1.000
    Si2898   Si       0.47602    0.44077    0.25462    1.000
    N2899    N        0.48106    0.50458    0.29438    1.000
    N2900    N        0.47649    0.32442    0.45088    1.000
    Si2901   Si       0.48791    0.30181    0.41630    1.000
    Si2902   Si       0.47154    0.35791    0.47669    1.000
    N2903    N        0.51024    0.32954    0.39246    1.000
    N2904    N        0.51378    0.36852    0.48784    1.000
    N2905    N        0.50461    0.26383    0.43102    1.000
    Si2906   Si       0.51639    0.26650    0.47322    1.000
    N2907    N        0.49791    0.48749    0.40610    1.000
    N2908    N        0.46376    0.39901    0.46512    1.000
    Si2909   Si       0.46602    0.50105    0.43260    1.000
    Si2910   Si       0.49251    0.44650    0.39701    1.000
    Si2911   Si       0.50801    0.41039    0.46602    1.000
    Si2912   Si       0.46113    0.50957    0.25479    1.000
    N2913    N        0.49147    0.28773    0.60437    1.000
    Si2914   Si       0.49380    0.32744    0.58569    1.000
    N2915    N        0.50943    0.35841    0.61062    1.000
    N2916    N        0.48109    0.27107    0.49969    1.000
    Si2917   Si       0.51148    0.37158    0.53196    1.000
    N2918    N        0.47211    0.38412    0.54092    1.000
    N2919    N        0.47976    0.49878    0.60387    1.000
    N2920    N        0.49297    0.42984    0.59825    1.000
    Si2921   Si       0.51235    0.46917    0.59993    1.000
    N2922    N        0.49922    0.50393    0.51191    1.000
    Si2923   Si       0.46382    0.42181    0.56432    1.000
    N2924    N        0.51559    0.43599    0.49857    1.000
    Si2925   Si       0.48380    0.46525    0.50111    1.000
    Si2926   Si       0.49035    0.36754    0.65007    1.000
    Si2927   Si       0.47218    0.32383    0.71599    1.000
    N2928    N        0.49451    0.34519    0.68693    1.000
    Si2929   Si       0.49165    0.42805    0.64243    1.000
    N2930    N        0.46358    0.45386    0.66177    1.000
    N2931    N        0.50343    0.40206    0.73066    1.000
    N2932    N        0.49951    0.47289    0.73046    1.000
    N2933    N        0.51935    0.39784    0.66483    1.000
    Si2934   Si       0.49497    0.33979    0.79065    1.000
    N2935    N        0.49529    0.27102    0.86058    1.000
    N2936    N        0.47297    0.31307    0.81746    1.000
    N2937    N        0.49554    0.31722    0.75261    1.000
    Si2938   Si       0.47423    0.31634    0.86223    1.000
    N2939    N        0.48479    0.38212    0.80124    1.000
    Si2940   Si       0.48004    0.45130    0.90947    1.000
    N2941    N        0.49590    0.49915    0.81254    1.000
    Si2942   Si       0.49208    0.43543    0.75307    1.000
    N2943    N        0.47497    0.47093    0.86933    1.000
    N2944    N        0.51601    0.37946    0.99800    1.000
    Si2945   Si       0.49101    0.50893    0.85506    1.000
    N2946    N        0.51176    0.48849    0.96839    1.000
    Si2947   Si       0.47276    0.38386    0.99102    1.000
    Si2948   Si       0.51391    0.28904    0.96222    1.000
    Si2949   Si       0.46845    0.37388    0.92289    1.000
    Si2950   Si       0.51008    0.36774    0.87974    1.000
    N2951    N        0.51125    0.37062    0.92445    1.000
    N2952    N        0.46702    0.35663    0.88170    1.000
    N2953    N        0.47457    0.29266    0.98158    1.000
    N2954    N        0.50589    0.52599    0.02839    1.000
    N2955    N        0.48068    0.59257    0.01280    1.000
    Si2956   Si       0.51163    0.60871    0.07586    1.000
    N2957    N        0.47315    0.63054    0.08570    1.000
    Si2958   Si       0.51655    0.56839    0.01827    1.000
    N2959    N        0.50287    0.58215    0.11291    1.000
    N2960    N        0.50659    0.67178    0.13272    1.000
    Si2961   Si       0.46299    0.59828    0.11891    1.000
    N2962    N        0.49184    0.70078    0.06643    1.000
    Si2963   Si       0.51188    0.74207    0.08316    1.000
    Si2964   Si       0.46982    0.69434    0.02996    1.000
    Si2965   Si       0.49949    0.66634    0.09082    1.000
    N2966    N        0.47058    0.75904    0.09242    1.000
    Si2967   Si       0.46267    0.51938    0.03065    1.000
    Si2968   Si       0.47317    0.54765    0.20161    1.000
    Si2969   Si       0.48057    0.62161    0.21783    1.000
    N2970    N        0.49702    0.58363    0.20221    1.000
    N2971    N        0.49379    0.51463    0.22078    1.000
    N2972    N        0.49978    0.65688    0.20177    1.000
    Si2973   Si       0.47038    0.71287    0.21292    1.000
    Si2974   Si       0.47804    0.66053    0.16329    1.000
    N2975    N        0.51157    0.72150    0.21824    1.000
    Si2976   Si       0.47544    0.60708    0.29446    1.000
    Si2977   Si       0.48919    0.53786    0.32036    1.000
    N2978    N        0.50213    0.57151    0.29584    1.000
    N2979    N        0.49068    0.62653    0.25967    1.000
    N2980    N        0.47532    0.62896    0.33082    1.000
    N2981    N        0.45734    0.70597    0.25503    1.000
    Si2982   Si       0.46126    0.66551    0.34803    1.000
    Si2983   Si       0.47562    0.70705    0.29495    1.000
    N2984    N        0.49325    0.74263    0.31517    1.000
    N2985    N        0.50995    0.68012    0.29605    1.000
    N2986    N        0.49622    0.68544    0.36414    1.000
    Si2987   Si       0.48029    0.57126    0.43256    1.000
    N2988    N        0.49568    0.55142    0.39651    1.000
    N2989    N        0.47018    0.53634    0.45716    1.000
    N2990    N        0.51514    0.59884    0.43684    1.000
    Si2991   Si       0.49215    0.63114    0.45637    1.000
    N2992    N        0.51370    0.64289    0.49221    1.000
    Si2993   Si       0.46453    0.74430    0.40809    1.000
    N2994    N        0.48172    0.66002    0.42460    1.000
    Si2995   Si       0.50978    0.68876    0.40564    1.000
    N2996    N        0.50468    0.73066    0.41759    1.000
    N2997    N        0.48618    0.70902    0.49413    1.000
    N2998    N        0.47893    0.56850    0.52360    1.000
    Si2999   Si       0.50286    0.53455    0.60585    1.000
    N3000    N        0.51141    0.61454    0.57163    1.000
    Si3001   Si       0.47005    0.53271    0.49926    1.000
    Si3002   Si       0.51402    0.57977    0.54559    1.000
    Si3003   Si       0.48726    0.65085    0.56843    1.000
    N3004    N        0.49982    0.72802    0.60750    1.000
    N3005    N        0.50560    0.68695    0.55094    1.000
    N3006    N        0.51078    0.75612    0.53300    1.000
    Si3007   Si       0.51741    0.72746    0.56612    1.000
    N3008    N        0.46915    0.69440    0.66761    1.000
    N3009    N        0.48276    0.56653    0.62251    1.000
    N3010    N        0.47501    0.58896    0.69021    1.000
    Si3011   Si       0.50388    0.60929    0.71511    1.000
    Si3012   Si       0.47340    0.60031    0.64527    1.000
    N3013    N        0.50596    0.62984    0.64370    1.000
    Si3014   Si       0.50205    0.51163    0.71234    1.000
    N3015    N        0.46472    0.52083    0.69189    1.000
    N3016    N        0.50273    0.65225    0.70880    1.000
    Si3017   Si       0.49587    0.74765    0.73663    1.000
    Si3018   Si       0.46680    0.70507    0.62376    1.000
    Si3019   Si       0.50217    0.66695    0.66773    1.000
    N3020    N        0.46773    0.71531    0.74204    1.000
    Si3021   Si       0.49090    0.56774    0.77674    1.000
    N3022    N        0.49351    0.60677    0.75802    1.000
    N3023    N        0.46756    0.54337    0.86534    1.000
    Si3024   Si       0.47346    0.62902    0.85471    1.000
    N3025    N        0.50651    0.63156    0.82743    1.000
    Si3026   Si       0.49360    0.64230    0.78520    1.000
    Si3027   Si       0.50305    0.74398    0.81204    1.000
    N3028    N        0.46500    0.72223    0.81762    1.000
    N3029    N        0.50263    0.74618    0.97437    1.000
    N3030    N        0.49137    0.54279    0.92707    1.000
    N3031    N        0.48290    0.60751    0.89234    1.000
    Si3032   Si       0.48519    0.62651    0.98509    1.000
    Si3033   Si       0.46785    0.56849    0.90039    1.000
    Si3034   Si       0.47846    0.51286    0.95361    1.000
    Si3035   Si       0.47279    0.69357    0.89263    1.000
    Si3036   Si       0.50681    0.63384    0.91855    1.000
    N3037    N        0.50907    0.71903    0.88970    1.000
    N3038    N        0.48691    0.67293    0.99570    1.000
    N3039    N        0.48528    0.67370    0.92807    1.000
    N3040    N        0.50496    0.53998    0.74595    1.000
    Si3041   Si       0.51961    0.70227    0.97669    1.000
    Si3042   Si       0.48915    0.87132    0.04189    1.000
    N3043    N        0.46677    0.85661    0.07797    1.000
    Si3044   Si       0.46355    0.76380    0.04795    1.000
    N3045    N        0.45939    0.86872    0.00948    1.000
    N3046    N        0.50088    0.91345    0.04489    1.000
    N3047    N        0.50824    0.96726    0.08884    1.000
    Si3048   Si       0.47649    0.94003    0.06674    1.000
    Si3049   Si       0.49568    0.00128    0.11288    1.000
    N3050    N        0.47690    0.94804    0.16883    1.000
    Si3051   Si       0.47147    0.85553    0.18059    1.000
    N3052    N        0.48356    0.87327    0.14487    1.000
    Si3053   Si       0.46535    0.77243    0.16694    1.000
    N3054    N        0.49808    0.85304    0.21543    1.000
    N3055    N        0.50929    0.77359    0.15992    1.000
    Si3056   Si       0.51277    0.96896    0.18169    1.000
    N3057    N        0.51922    0.00051    0.14848    1.000
    N3058    N        0.48875    0.98782    0.21433    1.000
    Si3059   Si       0.45662    0.88189    0.11128    1.000
    N3060    N        0.50697    0.75956    0.04187    1.000
    N3061    N        0.49079    0.85466    0.28449    1.000
    N3062    N        0.49306    0.84426    0.36184    1.000
    Si3063   Si       0.47325    0.84219    0.32086    1.000
    N3064    N        0.49621    0.78652    0.24874    1.000
    Si3065   Si       0.46282    0.76679    0.33662    1.000
    Si3066   Si       0.48643    0.83075    0.24978    1.000
    Si3067   Si       0.50836    0.89703    0.28837    1.000
    N3068    N        0.47282    0.92114    0.30190    1.000
    Si3069   Si       0.47344    0.96450    0.31030    1.000
    N3070    N        0.50922    0.98781    0.29693    1.000
    Si3071   Si       0.50680    0.99714    0.25417    1.000
    N3072    N        0.47438    0.77716    0.37713    1.000
    Si3073   Si       0.49851    0.80999    0.38971    1.000
    N3074    N        0.48459    0.81712    0.43002    1.000
    Si3075   Si       0.50451    0.81400    0.46879    1.000
    N3076    N        0.46687    0.90599    0.38886    1.000
    N3077    N        0.50923    0.95553    0.40063    1.000
    Si3078   Si       0.50122    0.91545    0.41337    1.000
    N3079    N        0.49009    0.91513    0.45565    1.000
    Si3080   Si       0.47762    0.97971    0.48581    1.000
    N3081    N        0.51574    0.97458    0.46581    1.000
    N3082    N        0.46262    0.97386    0.35193    1.000
    Si3083   Si       0.48346    0.86351    0.52756    1.000
    N3084    N        0.48811    0.82211    0.50890    1.000
    Si3085   Si       0.47487    0.78163    0.52638    1.000
    N3086    N        0.47255    0.87687    0.56539    1.000
    Si3087   Si       0.46193    0.00097    0.66049    1.000
    Si3088   Si       0.50443    0.88253    0.59515    1.000
    N3089    N        0.48805    0.99237    0.52846    1.000
    N3090    N        0.48256    0.84994    0.73734    1.000
    N3091    N        0.47975    0.78919    0.64131    1.000
    Si3092   Si       0.49044    0.83198    0.63695    1.000
    N3093    N        0.48288    0.77807    0.70780    1.000
    Si3094   Si       0.50146    0.81719    0.71550    1.000
    N3095    N        0.50015    0.84081    0.67842    1.000
    Si3096   Si       0.47980    0.87462    0.70144    1.000
    Si3097   Si       0.51239    0.76413    0.62577    1.000
    Si3098   Si       0.49996    0.93261    0.66041    1.000
    N3099    N        0.47600    0.99419    0.70190    1.000
    N3100    N        0.48959    0.89952    0.63276    1.000
    Si3101   Si       0.46681    0.97656    0.74137    1.000
    N3102    N        0.46802    0.96057    0.64424    1.000
    N3103    N        0.50395    0.91062    0.69877    1.000
    N3104    N        0.51810    0.84344    0.60569    1.000
    Si3105   Si       0.49715    0.81960    0.82752    1.000
    N3106    N        0.49721    0.77695    0.84124    1.000
    N3107    N        0.50819    0.76644    0.77389    1.000
    N3108    N        0.50310    0.83997    0.86696    1.000
    Si3109   Si       0.49450    0.92409    0.78424    1.000
    N3110    N        0.49512    0.95206    0.81748    1.000
    Si3111   Si       0.46814    0.98861    0.81734    1.000
    N3112    N        0.50384    0.95278    0.75177    1.000
    Si3113   Si       0.51333    0.95252    0.85730    1.000
    N3114    N        0.46614    0.00572    0.77324    1.000
    Si3115   Si       0.47446    0.85657    0.96756    1.000
    Si3116   Si       0.49025    0.78413    0.95599    1.000
    N3117    N        0.50066    0.82285    0.97604    1.000
    N3118    N        0.49365    0.78789    0.91276    1.000
    Si3119   Si       0.47443    0.82341    0.89652    1.000
    Si3120   Si       0.51001    0.76219    0.88173    1.000
    N3121    N        0.51520    0.99116    0.88287    1.000
    Si3122   Si       0.51791    0.90734    0.92417    1.000
    N3123    N        0.48502    0.89639    0.94826    1.000
    N3124    N        0.50697    0.92038    0.88456    1.000
    N3125    N        0.46772    0.96240    0.92212    1.000
    Si3126   Si       0.50858    0.97523    0.92397    1.000
    N3127    N        0.55773    0.09238    0.07715    1.000
    Si3128   Si       0.54471    0.05537    0.09206    1.000
    Si3129   Si       0.52675    0.12042    0.05813    1.000
    N3130    N        0.57328    0.03196    0.06923    1.000
    Si3131   Si       0.55461    0.25122    0.18461    1.000
    N3132    N        0.53434    0.04916    0.99512    1.000
    N3133    N        0.56208    0.21682    0.02472    1.000
    N3134    N        0.54124    0.16050    0.06662    1.000
    Si3135   Si       0.53231    0.24992    0.02114    1.000
    N3136    N        0.57507    0.21098    0.11564    1.000
    Si3137   Si       0.56519    0.25114    0.10804    1.000
    Si3138   Si       0.54491    0.09155    0.22959    1.000
    N3139    N        0.56055    0.09324    0.19085    1.000
    N3140    N        0.55605    0.05537    0.13529    1.000
    N3141    N        0.56436    0.02111    0.18780    1.000
    Si3142   Si       0.53016    0.03857    0.16407    1.000
    Si3143   Si       0.56804    0.01568    0.23003    1.000
    N3144    N        0.52248    0.15985    0.13453    1.000
    N3145    N        0.53029    0.21413    0.17428    1.000
    Si3146   Si       0.52467    0.19457    0.21307    1.000
    Si3147   Si       0.55417    0.18712    0.14676    1.000
    N3148    N        0.56185    0.18158    0.23242    1.000
    Si3149   Si       0.55945    0.05566    0.28995    1.000
    N3150    N        0.56553    0.11704    0.25541    1.000
    Si3151   Si       0.56271    0.12149    0.36870    1.000
    N3152    N        0.57589    0.01399    0.29534    1.000
    N3153    N        0.54583    0.08099    0.37135    1.000
    N3154    N        0.55159    0.05262    0.24720    1.000
    N3155    N        0.52822    0.14426    0.35599    1.000
    Si3156   Si       0.55595    0.15789    0.26768    1.000
    Si3157   Si       0.54329    0.18111    0.33372    1.000
    N3158    N        0.56400    0.20395    0.36455    1.000
    N3159    N        0.57294    0.16594    0.30517    1.000
    N3160    N        0.54275    0.10789    0.46731    1.000
    N3161    N        0.54816    0.01678    0.40933    1.000
    Si3162   Si       0.57222    0.04904    0.38948    1.000
    N3163    N        0.57402    0.17611    0.48192    1.000
    Si3164   Si       0.57607    0.10962    0.43826    1.000
    N3165    N        0.56847    0.14100    0.40776    1.000
    N3166    N        0.53052    0.20288    0.42595    1.000
    Si3167   Si       0.55821    0.21199    0.45981    1.000
    N3168    N        0.52997    0.22891    0.49150    1.000
    Si3169   Si       0.56152    0.18415    0.40253    1.000
    Si3170   Si       0.53889    0.07506    0.49731    1.000
    N3171    N        0.56365    0.12637    0.53311    1.000
    N3172    N        0.55814    0.01170    0.53815    1.000
    N3173    N        0.52411    0.17607    0.53329    1.000
    Si3174   Si       0.53508    0.21856    0.53385    1.000
    Si3175   Si       0.54131    0.14882    0.56358    1.000
    N3176    N        0.57050    0.16517    0.59305    1.000
    N3177    N        0.53672    0.22969    0.62594    1.000
    Si3178   Si       0.52320    0.21169    0.73589    1.000
    Si3179   Si       0.55521    0.10248    0.67454    1.000
    N3180    N        0.55764    0.06389    0.65196    1.000
    N3181    N        0.55691    0.10666    0.71764    1.000
    Si3182   Si       0.52735    0.08396    0.73836    1.000
    N3183    N        0.52195    0.16537    0.64544    1.000
    N3184    N        0.54270    0.20335    0.69913    1.000
    Si3185   Si       0.52341    0.20638    0.66026    1.000
    Si3186   Si       0.56708    0.16377    0.63657    1.000
    Si3187   Si       0.54318    0.14991    0.49822    1.000
    Si3188   Si       0.55449    0.12117    0.81815    1.000
    N3189    N        0.55683    0.03547    0.85697    1.000
    N3190    N        0.54125    0.12663    0.77684    1.000
    N3191    N        0.52642    0.05607    0.77100    1.000
    N3192    N        0.52190    0.10588    0.84323    1.000
    N3193    N        0.55274    0.22146    0.76436    1.000
    N3194    N        0.56409    0.21678    0.82670    1.000
    Si3195   Si       0.53028    0.22363    0.80088    1.000
    Si3196   Si       0.56899    0.23952    0.86210    1.000
    N3197    N        0.57331    0.15260    0.83958    1.000
    Si3198   Si       0.52959    0.10111    0.88689    1.000
    N3199    N        0.55949    0.11124    0.95551    1.000
    Si3200   Si       0.55265    0.08861    0.99083    1.000
    N3201    N        0.57600    0.10184    0.88656    1.000
    Si3202   Si       0.57731    0.20656    0.91578    1.000
    N3203    N        0.52285    0.24877    0.97908    1.000
    N3204    N        0.57484    0.16332    0.91170    1.000
    N3205    N        0.53184    0.18314    0.96053    1.000
    N3206    N        0.54126    0.22550    0.89378    1.000
    Si3207   Si       0.54287    0.14881    0.93696    1.000
    Si3208   Si       0.56550    0.19698    0.98464    1.000
    Si3209   Si       0.57792    0.12811    0.75467    1.000
    Si3210   Si       0.55272    0.30747    0.06498    1.000
    N3211    N        0.56287    0.28071    0.02733    1.000
    N3212    N        0.53511    0.27548    0.08926    1.000
    Si3213   Si       0.53024    0.36631    0.03818    1.000
    N3214    N        0.57073    0.35108    0.02882    1.000
    N3215    N        0.57204    0.32686    0.09881    1.000
    Si3216   Si       0.57333    0.31613    0.99939    1.000
    N3217    N        0.55904    0.47489    0.07104    1.000
    Si3218   Si       0.54529    0.43665    0.05451    1.000
    N3219    N        0.53176    0.39768    0.06652    1.000
    Si3220   Si       0.52925    0.39843    0.10917    1.000
    N3221    N        0.56701    0.49681    0.00786    1.000
    Si3222   Si       0.54487    0.48047    0.11421    1.000
    Si3223   Si       0.52404    0.49078    0.01195    1.000
    N3224    N        0.52909    0.44062    0.12157    1.000
    N3225    N        0.55320    0.33658    0.16906    1.000
    N3226    N        0.52860    0.27604    0.20787    1.000
    N3227    N        0.56259    0.27208    0.14759    1.000
    Si3228   Si       0.54795    0.31073    0.13394    1.000
    Si3229   Si       0.53203    0.31876    0.20404    1.000
    N3230    N        0.55476    0.32619    0.24238    1.000
    Si3231   Si       0.55835    0.37937    0.16950    1.000
    N3232    N        0.52600    0.40578    0.18584    1.000
    N3233    N        0.55388    0.48212    0.20170    1.000
    N3234    N        0.56627    0.38801    0.12778    1.000
    Si3235   Si       0.57947    0.39460    0.24067    1.000
    Si3236   Si       0.55974    0.47266    0.24532    1.000
    N3237    N        0.54544    0.34213    0.31183    1.000
    Si3238   Si       0.53060    0.34571    0.27180    1.000
    Si3239   Si       0.56983    0.30811    0.32704    1.000
    Si3240   Si       0.54053    0.37704    0.33796    1.000
    N3241    N        0.55583    0.26766    0.33322    1.000
    N3242    N        0.58066    0.43583    0.25805    1.000
    N3243    N        0.53399    0.38739    0.25351    1.000
    N3244    N        0.54237    0.46902    0.30372    1.000
    N3245    N        0.55652    0.40939    0.31375    1.000
    Si3246   Si       0.53567    0.42615    0.27857    1.000
    Si3247   Si       0.57552    0.44712    0.32672    1.000
    N3248    N        0.57597    0.50749    0.26434    1.000
    N3249    N        0.51903    0.42134    0.42454    1.000
    N3250    N        0.56682    0.44991    0.37255    1.000
    N3251    N        0.56263    0.35375    0.43914    1.000
    Si3252   Si       0.54770    0.34205    0.47749    1.000
    Si3253   Si       0.55311    0.34262    0.39924    1.000
    N3254    N        0.54462    0.29855    0.47865    1.000
    N3255    N        0.55637    0.38061    0.37930    1.000
    Si3256   Si       0.55617    0.41841    0.40087    1.000
    Si3257   Si       0.56429    0.32517    0.54706    1.000
    N3258    N        0.56525    0.27735    0.59900    1.000
    Si3259   Si       0.54594    0.37585    0.59174    1.000
    N3260    N        0.57506    0.34681    0.51199    1.000
    N3261    N        0.57576    0.34366    0.58520    1.000
    N3262    N        0.52101    0.33293    0.55055    1.000
    N3263    N        0.53444    0.46945    0.56271    1.000
    N3264    N        0.53858    0.39755    0.55372    1.000
    Si3265   Si       0.54500    0.43640    0.53530    1.000
    N3266    N        0.52826    0.45709    0.64067    1.000
    N3267    N        0.56046    0.36542    0.71829    1.000
    Si3268   Si       0.52384    0.26063    0.59525    1.000
    Si3269   Si       0.52189    0.37590    0.70350    1.000
    Si3270   Si       0.55364    0.42138    0.65245    1.000
    N3271    N        0.56789    0.40161    0.61759    1.000
    Si3272   Si       0.54979    0.49207    0.65475    1.000
    N3273    N        0.55833    0.28783    0.74083    1.000
    N3274    N        0.53546    0.33264    0.80285    1.000
    N3275    N        0.56515    0.28469    0.85773    1.000
    Si3276   Si       0.52583    0.29673    0.83215    1.000
    Si3277   Si       0.57480    0.35043    0.80352    1.000
    N3278    N        0.51978    0.32850    0.86602    1.000
    N3279    N        0.52062    0.26774    0.79985    1.000
    N3280    N        0.56333    0.39351    0.80320    1.000
    N3281    N        0.56064    0.49218    0.77948    1.000
    N3282    N        0.55280    0.46626    0.84476    1.000
    Si3283   Si       0.53087    0.47311    0.80540    1.000
    Si3284   Si       0.56590    0.50573    0.85652    1.000
    Si3285   Si       0.52197    0.40100    0.81261    1.000
    N3286    N        0.52062    0.40256    0.85676    1.000
    Si3287   Si       0.53521    0.36482    0.96109    1.000
    Si3288   Si       0.54784    0.30630    0.89296    1.000
    N3289    N        0.53924    0.32237    0.97476    1.000
    Si3290   Si       0.54229    0.47106    0.94393    1.000
    N3291    N        0.52160    0.28378    0.92069    1.000
    N3292    N        0.56006    0.50567    0.92566    1.000
    Si3293   Si       0.54334    0.43544    0.87663    1.000
    N3294    N        0.57265    0.44729    0.96528    1.000
    Si3295   Si       0.51892    0.28193    0.75869    1.000
    N3296    N        0.52384    0.44779    0.91355    1.000
    N3297    N        0.51572    0.43796    0.78984    1.000
    N3298    N        0.53663    0.58603    0.04985    1.000
    N3299    N        0.56410    0.55191    0.10292    1.000
    Si3300   Si       0.57494    0.57361    0.06780    1.000
    N3301    N        0.53569    0.64566    0.07965    1.000
    N3302    N        0.54128    0.71920    0.10406    1.000
    N3303    N        0.54546    0.71100    0.01148    1.000
    Si3304   Si       0.53068    0.75319    0.00754    1.000
    Si3305   Si       0.57542    0.74747    0.10089    1.000
    N3306    N        0.56962    0.75915    0.14648    1.000
    Si3307   Si       0.52783    0.54985    0.12638    1.000
    N3308    N        0.54021    0.54470    0.16754    1.000
    Si3309   Si       0.54035    0.57694    0.19720    1.000
    N3310    N        0.55147    0.56613    0.23795    1.000
    N3311    N        0.56493    0.60834    0.17941    1.000
    Si3312   Si       0.57062    0.51191    0.17447    1.000
    Si3313   Si       0.54751    0.68758    0.13414    1.000
    Si3314   Si       0.52654    0.75823    0.24128    1.000
    Si3315   Si       0.54096    0.74767    0.17582    1.000
    Si3316   Si       0.53160    0.68417    0.20993    1.000
    N3317    N        0.55646    0.70175    0.17561    1.000
    Si3318   Si       0.54207    0.57734    0.28044    1.000
    N3319    N        0.55056    0.61884    0.28598    1.000
    N3320    N        0.56897    0.55459    0.30620    1.000
    N3321    N        0.51994    0.51601    0.34194    1.000
    Si3322   Si       0.52717    0.67779    0.33693    1.000
    N3323    N        0.55235    0.64344    0.35060    1.000
    N3324    N        0.55559    0.71169    0.34102    1.000
    Si3325   Si       0.53764    0.74463    0.31933    1.000
    Si3326   Si       0.52512    0.64937    0.26987    1.000
    N3327    N        0.54840    0.75407    0.27802    1.000
    Si3328   Si       0.52094    0.51890    0.38528    1.000
    N3329    N        0.57022    0.55796    0.46069    1.000
    Si3330   Si       0.55901    0.59701    0.44440    1.000
    N3331    N        0.56221    0.51869    0.40005    1.000
    N3332    N        0.56992    0.74315    0.43025    1.000
    N3333    N        0.54839    0.70947    0.48464    1.000
    Si3334   Si       0.56900    0.70187    0.44589    1.000
    Si3335   Si       0.57714    0.64989    0.38738    1.000
    N3336    N        0.55134    0.67630    0.41512    1.000
    Si3337   Si       0.56160    0.51151    0.30801    1.000
    N3338    N        0.57912    0.62177    0.47665    1.000
    Si3339   Si       0.51637    0.74098    0.49307    1.000
    N3340    N        0.55395    0.66915    0.24344    1.000
    N3341    N        0.55053    0.58551    0.52117    1.000
    Si3342   Si       0.56100    0.54560    0.59549    1.000
    Si3343   Si       0.53227    0.61921    0.60911    1.000
    Si3344   Si       0.55247    0.62633    0.50972    1.000
    N3345    N        0.56677    0.51540    0.51841    1.000
    N3346    N        0.55880    0.58514    0.61356    1.000
    N3347    N        0.52550    0.54217    0.56790    1.000
    Si3348   Si       0.57663    0.55580    0.50290    1.000
    N3349    N        0.54066    0.52193    0.62433    1.000
    N3350    N        0.56104    0.66124    0.53113    1.000
    N3351    N        0.55844    0.71795    0.57557    1.000
    N3352    N        0.56001    0.65396    0.60285    1.000
    Si3353   Si       0.57353    0.67795    0.56958    1.000
    N3354    N        0.57483    0.54823    0.74191    1.000
    N3355    N        0.54484    0.59560    0.70440    1.000
    Si3356   Si       0.56196    0.55497    0.70162    1.000
    N3357    N        0.53850    0.51839    0.69082    1.000
    Si3358   Si       0.57616    0.62635    0.70487    1.000
    N3359    N        0.53757    0.69097    0.66168    1.000
    Si3360   Si       0.57035    0.66911    0.64274    1.000
    N3361    N        0.52587    0.72265    0.72045    1.000
    N3362    N        0.56817    0.66599    0.72093    1.000
    Si3363   Si       0.52753    0.67944    0.73137    1.000
    Si3364   Si       0.54472    0.72924    0.68148    1.000
    Si3365   Si       0.52402    0.68222    0.51016    1.000
    Si3366   Si       0.57762    0.75336    0.58794    1.000
    Si3367   Si       0.53008    0.50717    0.54043    1.000
    N3368    N        0.53286    0.56360    0.79662    1.000
    Si3369   Si       0.54325    0.53193    0.76572    1.000
    Si3370   Si       0.56966    0.57345    0.81769    1.000
    N3371    N        0.56186    0.59710    0.85326    1.000
    Si3372   Si       0.54422    0.63741    0.84880    1.000
    Si3373   Si       0.55687    0.68840    0.79829    1.000
    N3374    N        0.53894    0.72236    0.81959    1.000
    Si3375   Si       0.56900    0.73357    0.85300    1.000
    N3376    N        0.57287    0.65666    0.82352    1.000
    N3377    N        0.52381    0.67133    0.77463    1.000
    N3378    N        0.52985    0.52166    0.87133    1.000
    N3379    N        0.55184    0.57632    0.91725    1.000
    Si3380   Si       0.55295    0.59274    0.95595    1.000
    Si3381   Si       0.53265    0.53682    0.91345    1.000
    N3382    N        0.54466    0.56296    0.98654    1.000
    N3383    N        0.51789    0.61895    0.95690    1.000
    Si3384   Si       0.54199    0.69259    0.90329    1.000
    N3385    N        0.53199    0.65198    0.88864    1.000
    N3386    N        0.55080    0.69838    0.94587    1.000
    Si3387   Si       0.57896    0.53730    0.99440    1.000
    N3388    N        0.54127    0.78119    0.09561    1.000
    Si3389   Si       0.54389    0.82128    0.07613    1.000
    N3390    N        0.55836    0.78612    0.00048    1.000
    N3391    N        0.53736    0.83937    0.11717    1.000
    Si3392   Si       0.53541    0.82492    0.00344    1.000
    N3393    N        0.52271    0.84203    0.04209    1.000
    Si3394   Si       0.53426    0.93765    0.02681    1.000
    Si3395   Si       0.54758    0.94836    0.09740    1.000
    N3396    N        0.56420    0.94410    0.05890    1.000
    N3397    N        0.57358    0.97893    0.11587    1.000
    N3398    N        0.51936    0.97312    0.00927    1.000
    N3399    N        0.56179    0.92223    0.99767    1.000
    Si3400   Si       0.54239    0.79749    0.13686    1.000
    Si3401   Si       0.53507    0.87389    0.21756    1.000
    Si3402   Si       0.52556    0.87500    0.13713    1.000
    N3403    N        0.55329    0.77123    0.21038    1.000
    N3404    N        0.56597    0.84219    0.22994    1.000
    N3405    N        0.54520    0.87952    0.17589    1.000
    N3406    N        0.55159    0.95133    0.17843    1.000
    N3407    N        0.54718    0.91006    0.12088    1.000
    Si3408   Si       0.56567    0.91406    0.16047    1.000
    Si3409   Si       0.57134    0.98674    0.15866    1.000
    N3410    N        0.54529    0.97962    0.24202    1.000
    Si3411   Si       0.53278    0.86691    0.36432    1.000
    N3412    N        0.56196    0.77691    0.33367    1.000
    N3413    N        0.57198    0.84490    0.36645    1.000
    Si3414   Si       0.57389    0.80177    0.36898    1.000
    N3415    N        0.53288    0.88910    0.32641    1.000
    N3416    N        0.55619    0.97544    0.35516    1.000
    Si3417   Si       0.55171    0.98250    0.31274    1.000
    N3418    N        0.56380    0.94317    0.29751    1.000
    Si3419   Si       0.55993    0.93923    0.25329    1.000
    N3420    N        0.53310    0.90491    0.25077    1.000
    Si3421   Si       0.57372    0.90468    0.31627    1.000
    N3422    N        0.53717    0.84540    0.46559    1.000
    N3423    N        0.53911    0.79449    0.39533    1.000
    Si3424   Si       0.55491    0.87339    0.43675    1.000
    Si3425   Si       0.53221    0.76353    0.42676    1.000
    N3426    N        0.52786    0.88171    0.40297    1.000
    N3427    N        0.52058    0.77476    0.46643    1.000
    N3428    N        0.55627    0.91255    0.45996    1.000
    Si3429   Si       0.52441    0.93513    0.47819    1.000
    Si3430   Si       0.52476    0.99084    0.38076    1.000
    Si3431   Si       0.53827    0.01077    0.45185    1.000
    N3432    N        0.54216    0.77734    0.59472    1.000
    Si3433   Si       0.54920    0.82086    0.58590    1.000
    N3434    N        0.56622    0.82883    0.54535    1.000
    Si3435   Si       0.55426    0.84970    0.50710    1.000
    N3436    N        0.52524    0.87659    0.52533    1.000
    Si3437   Si       0.54719    0.90934    0.54369    1.000
    Si3438   Si       0.54545    0.94855    0.60768    1.000
    N3439    N        0.53578    0.91183    0.58522    1.000
    N3440    N        0.53374    0.94381    0.52144    1.000
    Si3441   Si       0.52616    0.98125    0.54267    1.000
    N3442    N        0.52463    0.98092    0.58672    1.000
    N3443    N        0.54021    0.81306    0.73280    1.000
    N3444    N        0.56238    0.87621    0.71100    1.000
    Si3445   Si       0.57491    0.83393    0.71200    1.000
    N3446    N        0.54164    0.76561    0.65959    1.000
    Si3447   Si       0.57369    0.79108    0.64345    1.000
    N3448    N        0.56487    0.93710    0.72119    1.000
    Si3449   Si       0.54246    0.96894    0.74235    1.000
    Si3450   Si       0.53619    0.90505    0.73050    1.000
    N3451    N        0.54343    0.99499    0.70830    1.000
    N3452    N        0.53756    0.95357    0.65280    1.000
    Si3453   Si       0.56858    0.96471    0.68293    1.000
    Si3454   Si       0.53844    0.79840    0.77257    1.000
    Si3455   Si       0.54868    0.86941    0.79844    1.000
    N3456    N        0.52907    0.83016    0.80106    1.000
    N3457    N        0.55434    0.88544    0.83926    1.000
    N3458    N        0.55821    0.95626    0.85121    1.000
    N3459    N        0.55719    0.98607    0.77771    1.000
    N3460    N        0.52874    0.89836    0.77406    1.000
    Si3461   Si       0.57171    0.99491    0.86171    1.000
    Si3462   Si       0.54197    0.86032    0.87220    1.000
    N3463    N        0.55348    0.76884    0.87502    1.000
    N3464    N        0.56815    0.80620    0.93562    1.000
    Si3465   Si       0.56803    0.84935    0.94159    1.000
    N3466    N        0.54277    0.87303    0.91546    1.000
    N3467    N        0.56386    0.85585    0.98520    1.000
    Si3468   Si       0.57673    0.79611    0.89555    1.000
    N3469    N        0.57870    0.83215    0.87291    1.000
    Si3470   Si       0.53535    0.00615    0.98742    1.000
    Si3471   Si       0.56869    0.94930    0.96401    1.000
    N3472    N        0.57253    0.99048    0.97066    1.000
    N3473    N        0.53444    0.94430    0.93879    1.000
    N3474    N        0.62377    0.07517    0.07535    1.000
    Si3475   Si       0.59575    0.10733    0.08832    1.000
    N3476    N        0.61664    0.03387    0.01502    1.000
    Si3477   Si       0.59827    0.05817    0.04315    1.000
    N3478    N        0.58925    0.09058    0.01379    1.000
    Si3479   Si       0.61043    0.12734    0.01721    1.000
    Si3480   Si       0.59451    0.19155    0.20500    1.000
    N3481    N        0.60377    0.13979    0.06018    1.000
    N3482    N        0.61214    0.20468    0.05886    1.000
    Si3483   Si       0.61645    0.20715    0.10219    1.000
    Si3484   Si       0.59332    0.24349    0.03928    1.000
    N3485    N        0.62340    0.24841    0.00788    1.000
    N3486    N        0.58447    0.16172    0.00463    1.000
    N3487    N        0.63559    0.17144    0.11335    1.000
    Si3488   Si       0.61732    0.14686    0.14614    1.000
    Si3489   Si       0.62410    0.02129    0.19495    1.000
    N3490    N        0.61104    0.02005    0.23641    1.000
    N3491    N        0.59833    0.11125    0.13094    1.000
    N3492    N        0.62192    0.06025    0.17099    1.000
    N3493    N        0.63015    0.10499    0.22879    1.000
    Si3494   Si       0.58361    0.07848    0.15682    1.000
    N3495    N        0.63288    0.18097    0.22042    1.000
    Si3496   Si       0.62376    0.25586    0.22456    1.000
    N3497    N        0.58810    0.17017    0.16748    1.000
    N3498    N        0.58924    0.23489    0.20476    1.000
    Si3499   Si       0.57925    0.17611    0.04606    1.000
    N3500    N        0.60216    0.07049    0.29109    1.000
    Si3501   Si       0.61631    0.07895    0.33454    1.000
    N3502    N        0.59873    0.11668    0.34465    1.000
    N3503    N        0.60176    0.04433    0.35614    1.000
    Si3504   Si       0.60710    0.10584    0.26658    1.000
    Si3505   Si       0.61492    0.02708    0.27938    1.000
    N3506    N        0.63071    0.13990    0.28212    1.000
    Si3507   Si       0.61280    0.15245    0.32081    1.000
    N3508    N        0.62311    0.25197    0.33808    1.000
    Si3509   Si       0.58303    0.24205    0.35886    1.000
    N3510    N        0.63802    0.24793    0.26744    1.000
    Si3511   Si       0.61018    0.16818    0.45213    1.000
    N3512    N        0.59219    0.07492    0.41763    1.000
    N3513    N        0.60873    0.12521    0.45824    1.000
    N3514    N        0.62075    0.02047    0.41122    1.000
    Si3515   Si       0.63212    0.06084    0.42362    1.000
    N3516    N        0.58428    0.24905    0.46694    1.000
    Si3517   Si       0.61173    0.23784    0.43375    1.000
    N3518    N        0.59247    0.19934    0.42806    1.000
    N3519    N        0.63525    0.18261    0.34040    1.000
    Si3520   Si       0.63429    0.01490    0.36839    1.000
    N3521    N        0.60181    0.25631    0.39658    1.000
    N3522    N        0.59390    0.07290    0.57063    1.000
    Si3523   Si       0.59043    0.09370    0.53466    1.000
    Si3524   Si       0.58811    0.02146    0.50903    1.000
    N3525    N        0.61905    0.02031    0.54119    1.000
    Si3526   Si       0.58577    0.02934    0.56759    1.000
    N3527    N        0.58901    0.01345    0.60680    1.000
    N3528    N        0.63159    0.10526    0.52447    1.000
    Si3529   Si       0.63017    0.08091    0.59267    1.000
    N3530    N        0.57917    0.06464    0.50538    1.000
    Si3531   Si       0.59938    0.19307    0.57346    1.000
    N3532    N        0.61290    0.23073    0.59809    1.000
    Si3533   Si       0.58566    0.20141    0.69459    1.000
    N3534    N        0.57539    0.22014    0.55052    1.000
    N3535    N        0.62537    0.03772    0.72653    1.000
    N3536    N        0.62034    0.06701    0.63324    1.000
    Si3537   Si       0.58924    0.03739    0.64326    1.000
    Si3538   Si       0.63116    0.01286    0.69141    1.000
    N3539    N        0.58423    0.13141    0.65928    1.000
    Si3540   Si       0.62290    0.14381    0.67903    1.000
    N3541    N        0.59818    0.23884    0.71277    1.000
    N3542    N        0.61022    0.16993    0.71234    1.000
    Si3543   Si       0.58109    0.24050    0.62979    1.000
    N3544    N        0.58498    0.19914    0.65234    1.000
    Si3545   Si       0.60020    0.25583    0.55805    1.000
    N3546    N        0.61101    0.09908    0.75725    1.000
    Si3547   Si       0.62295    0.08899    0.79761    1.000
    N3548    N        0.58593    0.09100    0.81961    1.000
    Si3549   Si       0.58378    0.06848    0.85733    1.000
    N3550    N        0.60163    0.22899    0.88697    1.000
    N3551    N        0.62509    0.05482    0.86720    1.000
    N3552    N        0.59206    0.21501    0.95569    1.000
    N3553    N        0.59631    0.16292    0.77733    1.000
    Si3554   Si       0.59241    0.18464    0.81636    1.000
    N3555    N        0.63088    0.20451    0.82104    1.000
    Si3556   Si       0.58186    0.25313    0.75262    1.000
    Si3557   Si       0.62919    0.17135    0.75140    1.000
    N3558    N        0.63264    0.15557    0.86942    1.000
    Si3559   Si       0.58838    0.08961    0.92947    1.000
    N3560    N        0.63179    0.08986    0.93537    1.000
    N3561    N        0.63631    0.01486    0.94574    1.000
    Si3562   Si       0.59409    0.01116    0.93827    1.000
    Si3563   Si       0.62981    0.22746    0.97011    1.000
    Si3564   Si       0.59053    0.14280    0.87826    1.000
    N3565    N        0.57773    0.04847    0.93428    1.000
    Si3566   Si       0.59445    0.36184    0.10769    1.000
    N3567    N        0.61598    0.37946    0.07459    1.000
    N3568    N        0.59712    0.26257    0.07815    1.000
    N3569    N        0.63405    0.37833    0.00196    1.000
    Si3570   Si       0.59889    0.38254    0.03086    1.000
    N3571    N        0.62071    0.47727    0.02605    1.000
    Si3572   Si       0.59100    0.50247    0.04973    1.000
    Si3573   Si       0.58662    0.45739    0.00466    1.000
    N3574    N        0.62097    0.50584    0.08201    1.000
    N3575    N        0.58006    0.42093    0.02869    1.000
    Si3576   Si       0.62828    0.37418    0.17703    1.000
    N3577    N        0.62203    0.29983    0.22756    1.000
    N3578    N        0.62819    0.35532    0.13800    1.000
    Si3579   Si       0.62033    0.49415    0.12306    1.000
    N3580    N        0.59040    0.38476    0.19735    1.000
    N3581    N        0.58013    0.49025    0.13828    1.000
    Si3582   Si       0.62962    0.44110    0.19966    1.000
    N3583    N        0.63862    0.41961    0.23597    1.000
    N3584    N        0.59877    0.30193    0.29568    1.000
    N3585    N        0.60778    0.36469    0.26015    1.000
    Si3586   Si       0.59608    0.32342    0.25539    1.000
    Si3587   Si       0.63129    0.27373    0.30266    1.000
    N3588    N        0.62091    0.36949    0.34034    1.000
    N3589    N        0.61936    0.43848    0.31740    1.000
    N3590    N        0.59216    0.49156    0.33411    1.000
    Si3591   Si       0.62273    0.43902    0.27205    1.000
    Si3592   Si       0.63001    0.48671    0.31528    1.000
    Si3593   Si       0.61081    0.46057    0.43708    1.000
    Si3594   Si       0.61565    0.34325    0.37305    1.000
    Si3595   Si       0.58516    0.28383    0.49184    1.000
    N3596    N        0.62483    0.30698    0.48774    1.000
    N3597    N        0.62416    0.36158    0.41042    1.000
    N3598    N        0.62267    0.38132    0.47706    1.000
    Si3599   Si       0.60139    0.38256    0.44077    1.000
    N3600    N        0.57817    0.32171    0.36780    1.000
    Si3601   Si       0.58580    0.48829    0.37705    1.000
    N3602    N        0.59219    0.42232    0.42796    1.000
    N3603    N        0.62076    0.48612    0.40332    1.000
    N3604    N        0.59305    0.49226    0.46153    1.000
    N3605    N        0.62584    0.29758    0.59123    1.000
    Si3606   Si       0.61813    0.34726    0.50548    1.000
    Si3607   Si       0.59064    0.31146    0.61207    1.000
    N3608    N        0.58068    0.28683    0.53442    1.000
    Si3609   Si       0.60284    0.37645    0.62094    1.000
    Si3610   Si       0.57722    0.32690    0.73250    1.000
    N3611    N        0.62964    0.39216    0.59105    1.000
    Si3612   Si       0.59437    0.48409    0.50379    1.000
    N3613    N        0.63073    0.49122    0.52733    1.000
    N3614    N        0.58239    0.44461    0.51748    1.000
    Si3615   Si       0.60422    0.45812    0.68500    1.000
    Si3616   Si       0.61955    0.27241    0.69222    1.000
    N3617    N        0.60934    0.31345    0.70477    1.000
    Si3618   Si       0.62149    0.35120    0.68109    1.000
    N3619    N        0.59517    0.34062    0.64465    1.000
    N3620    N        0.60982    0.26756    0.65151    1.000
    N3621    N        0.62644    0.38228    0.71310    1.000
    N3622    N        0.59245    0.48426    0.65303    1.000
    Si3623   Si       0.61599    0.50350    0.62139    1.000
    N3624    N        0.57632    0.42486    0.68899    1.000
    Si3625   Si       0.58683    0.40248    0.72317    1.000
    N3626    N        0.63362    0.38758    0.65329    1.000
    N3627    N        0.60951    0.48124    0.72199    1.000
    N3628    N        0.59613    0.33244    0.77240    1.000
    N3629    N        0.60202    0.34605    0.83768    1.000
    N3630    N        0.61558    0.26807    0.77500    1.000
    Si3631   Si       0.60100    0.31124    0.86480    1.000
    N3632    N        0.60450    0.49527    0.87655    1.000
    Si3633   Si       0.60341    0.41153    0.79495    1.000
    N3634    N        0.61552    0.43215    0.83028    1.000
    N3635    N        0.59440    0.43010    0.75627    1.000
    N3636    N        0.63282    0.49258    0.78675    1.000
    Si3637   Si       0.59813    0.47466    0.76381    1.000
    N3638    N        0.60729    0.32004    0.97149    1.000
    Si3639   Si       0.60470    0.34513    0.93524    1.000
    N3640    N        0.58553    0.32296    0.90289    1.000
    Si3641   Si       0.59096    0.41932    0.93769    1.000
    Si3642   Si       0.60861    0.45153    0.86941    1.000
    N3643    N        0.58215    0.42792    0.89511    1.000
    N3644    N        0.63358    0.42548    0.94492    1.000
    Si3645   Si       0.63250    0.30906    0.77524    1.000
    N3646    N        0.57561    0.37637    0.94636    1.000
    N3647    N        0.60154    0.60874    0.07659    1.000
    N3648    N        0.59270    0.54691    0.03724    1.000
    Si3649   Si       0.63542    0.59864    0.10042    1.000
    N3650    N        0.59828    0.67899    0.06194    1.000
    N3651    N        0.61387    0.72758    0.11044    1.000
    Si3652   Si       0.63064    0.69654    0.08579    1.000
    Si3653   Si       0.58106    0.70960    0.03442    1.000
    N3654    N        0.58413    0.74899    0.05345    1.000
    N3655    N        0.60846    0.70803    0.00057    1.000
    N3656    N        0.60170    0.53021    0.20014    1.000
    N3657    N        0.62784    0.60516    0.14288    1.000
    Si3658   Si       0.58739    0.54111    0.23825    1.000
    Si3659   Si       0.59642    0.63175    0.15765    1.000
    N3660    N        0.60928    0.70679    0.23080    1.000
    Si3661   Si       0.59806    0.69815    0.18788    1.000
    Si3662   Si       0.62533    0.74836    0.22599    1.000
    N3663    N        0.61255    0.65876    0.18643    1.000
    N3664    N        0.62556    0.73091    0.17359    1.000
    Si3665   Si       0.57959    0.64690    0.08291    1.000
    N3666    N        0.57857    0.65777    0.12809    1.000
    N3667    N        0.61405    0.60781    0.31510    1.000
    Si3668   Si       0.61215    0.56549    0.30145    1.000
    N3669    N        0.61931    0.56532    0.25840    1.000
    N3670    N        0.60825    0.68546    0.45214    1.000
    N3671    N        0.62260    0.64258    0.25490    1.000
    Si3672   Si       0.59827    0.69777    0.33876    1.000
    Si3673   Si       0.59409    0.67639    0.25777    1.000
    N3674    N        0.59318    0.67407    0.30281    1.000
    N3675    N        0.62820    0.72978    0.33205    1.000
    N3676    N        0.61221    0.66820    0.36872    1.000
    N3677    N        0.61674    0.75777    0.27056    1.000
    N3678    N        0.58392    0.61303    0.41157    1.000
    Si3679   Si       0.58786    0.52759    0.43335    1.000
    N3680    N        0.62395    0.55179    0.42279    1.000
    Si3681   Si       0.62517    0.59623    0.41687    1.000
    Si3682   Si       0.61415    0.64646    0.47168    1.000
    N3683    N        0.63775    0.53271    0.31371    1.000
    N3684    N        0.63660    0.74972    0.44495    1.000
    Si3685   Si       0.57799    0.63527    0.31571    1.000
    N3686    N        0.61717    0.55590    0.51985    1.000
    N3687    N        0.59857    0.52646    0.58948    1.000
    Si3688   Si       0.62065    0.52557    0.55134    1.000
    N3689    N        0.62640    0.59674    0.61591    1.000
    N3690    N        0.61609    0.68415    0.56969    1.000
    N3691    N        0.62978    0.72421    0.50659    1.000
    N3692    N        0.59894    0.75829    0.62893    1.000
    Si3693   Si       0.59083    0.59327    0.64009    1.000
    N3694    N        0.59508    0.56306    0.67248    1.000
    N3695    N        0.61078    0.61389    0.72714    1.000
    N3696    N        0.58325    0.63219    0.66112    1.000
    N3697    N        0.60703    0.69022    0.63884    1.000
    Si3698   Si       0.61300    0.72771    0.66025    1.000
    Si3699   Si       0.59308    0.70202    0.72864    1.000
    N3700    N        0.58550    0.72636    0.69481    1.000
    N3701    N        0.59267    0.59607    0.78937    1.000
    Si3702   Si       0.62225    0.53272    0.86056    1.000
    Si3703   Si       0.60708    0.57676    0.75183    1.000
    N3704    N        0.58530    0.53795    0.83387    1.000
    Si3705   Si       0.60507    0.63008    0.81277    1.000
    Si3706   Si       0.59515    0.75052    0.78785    1.000
    N3707    N        0.58496    0.71033    0.77047    1.000
    N3708    N        0.60176    0.75022    0.83034    1.000
    N3709    N        0.62821    0.65527    0.78605    1.000
    Si3710   Si       0.63362    0.70068    0.77781    1.000
    N3711    N        0.60566    0.74898    0.94476    1.000
    N3712    N        0.59617    0.60441    0.95646    1.000
    Si3713   Si       0.62119    0.57193    0.94054    1.000
    N3714    N        0.61309    0.55501    0.89954    1.000
    N3715    N        0.60474    0.53633    0.96005    1.000
    N3716    N        0.60824    0.62103    0.89583    1.000
    Si3717   Si       0.58388    0.58606    0.88921    1.000
    Si3718   Si       0.60403    0.51307    0.91939    1.000
    Si3719   Si       0.61346    0.63812    0.93532    1.000
    N3720    N        0.61825    0.68092    0.93960    1.000
    Si3721   Si       0.59245    0.70948    0.95868    1.000
    N3722    N        0.57746    0.70381    0.88055    1.000
    Si3723   Si       0.61298    0.85275    0.07097    1.000
    Si3724   Si       0.59207    0.78602    0.03216    1.000
    N3725    N        0.61490    0.86287    0.11141    1.000
    N3726    N        0.58413    0.81971    0.05904    1.000
    N3727    N        0.62108    0.78964    0.99890    1.000
    Si3728   Si       0.58499    0.88674    0.00666    1.000
    N3729    N        0.59853    0.88675    0.05042    1.000
    Si3730   Si       0.60026    0.00466    0.09024    1.000
    Si3731   Si       0.60806    0.93497    0.06105    1.000
    N3732    N        0.61733    0.97858    0.06105    1.000
    N3733    N        0.62941    0.93266    0.09971    1.000
    N3734    N        0.61778    0.78771    0.20577    1.000
    Si3735   Si       0.61671    0.83188    0.14330    1.000
    Si3736   Si       0.60955    0.77145    0.16145    1.000
    N3737    N        0.63056    0.79335    0.12880    1.000
    N3738    N        0.58012    0.81622    0.16160    1.000
    N3739    N        0.61013    0.91320    0.16434    1.000
    N3740    N        0.61222    0.98181    0.17718    1.000
    N3741    N        0.59957    0.93594    0.23465    1.000
    Si3742   Si       0.61936    0.94293    0.19428    1.000
    Si3743   Si       0.63144    0.90109    0.12837    1.000
    Si3744   Si       0.57714    0.80805    0.20616    1.000
    N3745    N        0.63581    0.00947    0.11657    1.000
    N3746    N        0.63581    0.84463    0.24561    1.000
    Si3747   Si       0.59788    0.85230    0.26114    1.000
    Si3748   Si       0.58351    0.77662    0.29301    1.000
    N3749    N        0.58819    0.81844    0.28692    1.000
    Si3750   Si       0.60588    0.99393    0.44047    1.000
    Si3751   Si       0.63475    0.93613    0.33773    1.000
    N3752    N        0.59955    0.88883    0.28392    1.000
    Si3753   Si       0.62335    0.92215    0.26681    1.000
    N3754    N        0.59741    0.91429    0.35378    1.000
    N3755    N        0.62542    0.97275    0.36011    1.000
    N3756    N        0.59392    0.95629    0.41914    1.000
    Si3757   Si       0.58901    0.95417    0.37658    1.000
    Si3758   Si       0.60307    0.87491    0.37681    1.000
    N3759    N        0.61320    0.77947    0.38449    1.000
    Si3760   Si       0.61950    0.82897    0.47393    1.000
    N3761    N        0.59878    0.80857    0.44442    1.000
    Si3762   Si       0.60407    0.76900    0.42704    1.000
    N3763    N        0.57693    0.00712    0.46914    1.000
    N3764    N        0.59566    0.88394    0.41924    1.000
    Si3765   Si       0.59579    0.92220    0.44307    1.000
    N3766    N        0.61822    0.92882    0.47889    1.000
    N3767    N        0.63525    0.95137    0.29647    1.000
    N3768    N        0.63953    0.85011    0.37141    1.000
    Si3769   Si       0.60786    0.81399    0.54524    1.000
    N3770    N        0.62450    0.80002    0.50661    1.000
    Si3771   Si       0.62124    0.84486    0.61306    1.000
    N3772    N        0.60228    0.77181    0.55821    1.000
    N3773    N        0.58235    0.82518    0.61283    1.000
    Si3774   Si       0.63111    0.76197    0.52735    1.000
    N3775    N        0.61924    0.88901    0.61516    1.000
    N3776    N        0.58907    0.90641    0.54468    1.000
    Si3777   Si       0.61085    0.91657    0.58087    1.000
    Si3778   Si       0.61206    0.89638    0.50906    1.000
    N3779    N        0.58934    0.94726    0.60384    1.000
    N3780    N        0.61558    0.82985    0.72907    1.000
    N3781    N        0.62341    0.87644    0.68458    1.000
    Si3782   Si       0.63148    0.83409    0.68583    1.000
    N3783    N        0.59168    0.81253    0.67713    1.000
    N3784    N        0.62357    0.91676    0.74118    1.000
    N3785    N        0.60159    0.93392    0.67309    1.000
    Si3786   Si       0.59704    0.90482    0.70782    1.000
    Si3787   Si       0.60502    0.97901    0.62937    1.000
    Si3788   Si       0.63197    0.90658    0.65472    1.000
    N3789    N        0.59633    0.00200    0.66789    1.000
    N3790    N        0.59437    0.86077    0.49109    1.000
    Si3791   Si       0.60731    0.82335    0.77151    1.000
    N3792    N        0.58888    0.86141    0.78114    1.000
    N3793    N        0.58110    0.78940    0.77679    1.000
    N3794    N        0.59418    0.93038    0.80431    1.000
    Si3795   Si       0.61349    0.89913    0.77930    1.000
    Si3796   Si       0.59227    0.97447    0.79808    1.000
    N3797    N        0.60697    0.99433    0.83359    1.000
    N3798    N        0.62494    0.98016    0.76942    1.000
    Si3799   Si       0.57975    0.92107    0.84308    1.000
    Si3800   Si       0.61738    0.83994    0.88898    1.000
    N3801    N        0.60786    0.86054    0.92582    1.000
    N3802    N        0.62171    0.79501    0.89443    1.000
    Si3803   Si       0.58920    0.78283    0.96818    1.000
    N3804    N        0.60236    0.93350    0.93884    1.000
    N3805    N        0.62479    0.88518    0.98760    1.000
    N3806    N        0.58862    0.98839    0.90227    1.000
    N3807    N        0.61332    0.92325    0.87254    1.000
    Si3808   Si       0.61774    0.95454    0.90289    1.000
    Si3809   Si       0.62260    0.89635    0.94487    1.000
    Si3810   Si       0.66698    0.07668    0.08275    1.000
    N3811    N        0.67477    0.11809    0.08110    1.000
    N3812    N        0.68878    0.05478    0.05330    1.000
    Si3813   Si       0.68732    0.15336    0.15565    1.000
    N3814    N        0.67279    0.17758    0.04809    1.000
    Si3815   Si       0.66809    0.15936    0.08668    1.000
    Si3816   Si       0.64886    0.21053    0.03506    1.000
    N3817    N        0.66388    0.24856    0.05592    1.000
    Si3818   Si       0.67859    0.16434    0.00744    1.000
    N3819    N        0.67744    0.06524    0.12477    1.000
    Si3820   Si       0.65125    0.03822    0.14513    1.000
    Si3821   Si       0.64444    0.09419    0.19097    1.000
    N3822    N        0.66768    0.01681    0.18305    1.000
    N3823    N        0.68407    0.07826    0.19720    1.000
    N3824    N        0.65160    0.13159    0.16753    1.000
    Si3825   Si       0.66078    0.25850    0.15633    1.000
    N3826    N        0.69261    0.18932    0.17752    1.000
    N3827    N        0.65764    0.24316    0.19896    1.000
    N3828    N        0.68860    0.13954    0.23374    1.000
    Si3829   Si       0.66862    0.20182    0.21140    1.000
    Si3830   Si       0.64697    0.14494    0.24254    1.000
    N3831    N        0.63835    0.24025    0.12385    1.000
    N3832    N        0.65922    0.07838    0.33493    1.000
    N3833    N        0.65214    0.01976    0.30038    1.000
    Si3834   Si       0.68345    0.05021    0.30792    1.000
    Si3835   Si       0.68649    0.07380    0.37032    1.000
    N3836    N        0.67555    0.02874    0.37440    1.000
    Si3837   Si       0.67760    0.23355    0.27585    1.000
    Si3838   Si       0.65648    0.21944    0.34604    1.000
    N3839    N        0.68582    0.22375    0.31621    1.000
    N3840    N        0.68767    0.19904    0.25053    1.000
    Si3841   Si       0.68892    0.17176    0.40862    1.000
    N3842    N        0.64632    0.06164    0.46537    1.000
    N3843    N        0.66693    0.08367    0.40818    1.000
    Si3844   Si       0.66866    0.02529    0.47150    1.000
    N3845    N        0.67455    0.12338    0.47238    1.000
    N3846    N        0.64947    0.24714    0.45184    1.000
    Si3847   Si       0.63722    0.10159    0.48234    1.000
    N3848    N        0.65219    0.17736    0.43580    1.000
    N3849    N        0.66820    0.24606    0.38268    1.000
    Si3850   Si       0.67305    0.20955    0.45758    1.000
    Si3851   Si       0.69717    0.15075    0.49680    1.000
    Si3852   Si       0.69401    0.10586    0.43736    1.000
    N3853    N        0.68076    0.19304    0.49732    1.000
    Si3854   Si       0.66113    0.02895    0.54986    1.000
    N3855    N        0.66766    0.05825    0.58163    1.000
    N3856    N        0.68109    0.02218    0.51230    1.000
    N3857    N        0.64449    0.12240    0.59019    1.000
    Si3858   Si       0.64743    0.13704    0.54930    1.000
    Si3859   Si       0.65979    0.20773    0.53537    1.000
    N3860    N        0.63957    0.24685    0.53472    1.000
    N3861    N        0.68931    0.22443    0.56148    1.000
    N3862    N        0.69209    0.13865    0.53816    1.000
    Si3863   Si       0.67094    0.13737    0.62177    1.000
    N3864    N        0.65420    0.15976    0.65500    1.000
    N3865    N        0.66136    0.03713    0.67316    1.000
    N3866    N        0.68165    0.09771    0.63661    1.000
    Si3867   Si       0.65099    0.07723    0.66090    1.000
    Si3868   Si       0.69355    0.18225    0.66238    1.000
    Si3869   Si       0.68706    0.18710    0.74112    1.000
    N3870    N        0.68942    0.20537    0.70225    1.000
    Si3871   Si       0.63775    0.07963    0.73017    1.000
    N3872    N        0.63345    0.17839    0.55210    1.000
    N3873    N        0.63718    0.10300    0.69374    1.000
    N3874    N        0.65725    0.11323    0.81180    1.000
    Si3875   Si       0.68248    0.11495    0.77367    1.000
    Si3876   Si       0.64181    0.01959    0.76308    1.000
    N3877    N        0.68482    0.01143    0.76398    1.000
    N3878    N        0.67663    0.07871    0.75033    1.000
    Si3879   Si       0.63661    0.02513    0.83752    1.000
    N3880    N        0.66669    0.22891    0.87877    1.000
    Si3881   Si       0.66457    0.13213    0.84969    1.000
    N3882    N        0.67598    0.25343    0.80642    1.000
    Si3883   Si       0.65263    0.19334    0.85719    1.000
    N3884    N        0.65272    0.20971    0.75807    1.000
    Si3885   Si       0.64002    0.23449    0.79134    1.000
    N3886    N        0.68974    0.16844    0.84673    1.000
    N3887    N        0.66553    0.14849    0.74924    1.000
    N3888    N        0.67270    0.06234    0.98398    1.000
    Si3889   Si       0.64742    0.02732    0.98663    1.000
    Si3890   Si       0.65252    0.07140    0.89719    1.000
    N3891    N        0.67516    0.10304    0.88047    1.000
    N3892    N        0.68351    0.04121    0.90069    1.000
    Si3893   Si       0.65804    0.10061    0.96844    1.000
    N3894    N        0.65971    0.20003    0.99066    1.000
    Si3895   Si       0.63619    0.25280    0.89931    1.000
    N3896    N        0.63397    0.04581    0.79846    1.000
    N3897    N        0.64481    0.25806    0.94070    1.000
    N3898    N        0.64991    0.13108    0.99991    1.000
    Si3899   Si       0.67423    0.32182    0.05974    1.000
    N3900    N        0.65335    0.30539    0.09227    1.000
    Si3901   Si       0.66031    0.26946    0.01857    1.000
    N3902    N        0.64744    0.31081    0.02655    1.000
    N3903    N        0.68535    0.36366    0.05739    1.000
    Si3904   Si       0.63948    0.26629    0.08853    1.000
    Si3905   Si       0.65771    0.39111    0.07591    1.000
    N3906    N        0.65671    0.43024    0.05739    1.000
    N3907    N        0.68102    0.48558    0.04979    1.000
    N3908    N        0.68202    0.39639    0.11256    1.000
    Si3909   Si       0.64376    0.46953    0.07065    1.000
    Si3910   Si       0.65851    0.48518    0.01016    1.000
    N3911    N        0.64665    0.45967    0.11410    1.000
    Si3912   Si       0.69372    0.44561    0.03576    1.000
    N3913    N        0.67303    0.44726    0.99530    1.000
    N3914    N        0.65397    0.35886    0.20948    1.000
    Si3915   Si       0.65632    0.31553    0.20405    1.000
    N3916    N        0.65034    0.29944    0.16397    1.000
    Si3917   Si       0.66011    0.32710    0.13018    1.000
    N3918    N        0.63853    0.41597    0.16684    1.000
    Si3919   Si       0.69190    0.47481    0.19379    1.000
    N3920    N        0.64907    0.47992    0.19727    1.000
    Si3921   Si       0.66678    0.42966    0.13721    1.000
    N3922    N        0.66924    0.29421    0.30843    1.000
    Si3923   Si       0.64809    0.37946    0.24752    1.000
    N3924    N        0.66347    0.38844    0.28723    1.000
    Si3925   Si       0.68884    0.47734    0.27148    1.000
    N3926    N        0.64585    0.47494    0.27530    1.000
    N3927    N        0.66367    0.48290    0.34187    1.000
    N3928    N        0.67808    0.41391    0.35264    1.000
    Si3929   Si       0.64432    0.40249    0.32542    1.000
    Si3930   Si       0.69489    0.45257    0.34025    1.000
    N3931    N        0.64610    0.31321    0.38015    1.000
    N3932    N        0.68140    0.31771    0.44677    1.000
    Si3933   Si       0.66290    0.33736    0.41243    1.000
    Si3934   Si       0.65992    0.28521    0.47120    1.000
    N3935    N        0.69153    0.36700    0.40223    1.000
    Si3936   Si       0.63560    0.27333    0.37506    1.000
    N3937    N        0.69543    0.47034    0.49560    1.000
    Si3938   Si       0.68579    0.46426    0.45320    1.000
    Si3939   Si       0.65283    0.41089    0.48711    1.000
    N3940    N        0.68126    0.50327    0.43355    1.000
    N3941    N        0.68921    0.39143    0.47722    1.000
    N3942    N        0.64448    0.44531    0.45826    1.000
    N3943    N        0.69332    0.27062    0.49798    1.000
    N3944    N        0.67470    0.34771    0.60832    1.000
    Si3945   Si       0.65345    0.32829    0.57501    1.000
    N3946    N        0.68407    0.30353    0.55656    1.000
    N3947    N        0.64331    0.35423    0.54075    1.000
    Si3948   Si       0.67994    0.26377    0.54162    1.000
    Si3949   Si       0.63838    0.26283    0.61643    1.000
    Si3950   Si       0.66166    0.39208    0.55862    1.000
    N3951    N        0.68653    0.41587    0.59348    1.000
    Si3952   Si       0.66726    0.46464    0.52865    1.000
    N3953    N        0.65558    0.42321    0.52976    1.000
    Si3954   Si       0.67909    0.45959    0.59872    1.000
    N3955    N        0.68936    0.48131    0.56277    1.000
    N3956    N        0.66287    0.33613    0.67671    1.000
    N3957    N        0.67632    0.28175    0.63305    1.000
    N3958    N        0.66243    0.27157    0.70470    1.000
    Si3959   Si       0.68264    0.32353    0.64445    1.000
    Si3960   Si       0.67154    0.31432    0.71306    1.000
    N3961    N        0.68467    0.39836    0.72658    1.000
    N3962    N        0.69501    0.40023    0.65741    1.000
    Si3963   Si       0.66464    0.38944    0.61991    1.000
    Si3964   Si       0.65960    0.40391    0.68647    1.000
    Si3965   Si       0.65216    0.48029    0.71470    1.000
    N3966    N        0.64847    0.44670    0.68554    1.000
    N3967    N        0.63948    0.47012    0.60791    1.000
    N3968    N        0.65344    0.31667    0.81385    1.000
    Si3969   Si       0.66762    0.28316    0.83747    1.000
    N3970    N        0.66302    0.33306    0.75062    1.000
    Si3971   Si       0.64140    0.35834    0.82234    1.000
    Si3972   Si       0.65518    0.37624    0.74997    1.000
    N3973    N        0.66776    0.38376    0.84577    1.000
    N3974    N        0.63608    0.28606    0.87025    1.000
    Si3975   Si       0.65520    0.41095    0.98176    1.000
    Si3976   Si       0.65608    0.42471    0.84204    1.000
    Si3977   Si       0.67353    0.47476    0.78662    1.000
    N3978    N        0.68457    0.45050    0.82116    1.000
    N3979    N        0.67603    0.46024    0.74719    1.000
    Si3980   Si       0.68368    0.36043    0.93998    1.000
    Si3981   Si       0.67752    0.28461    0.95258    1.000
    N3982    N        0.67953    0.32656    0.97084    1.000
    N3983    N        0.64476    0.35728    0.92378    1.000
    N3984    N        0.63822    0.38465    0.78867    1.000
    Si3985   Si       0.64206    0.33676    0.99298    1.000
    Si3986   Si       0.65687    0.45251    0.92267    1.000
    N3987    N        0.64104    0.49170    0.93085    1.000
    N3988    N        0.69260    0.39567    0.96383    1.000
    N3989    N        0.65084    0.44303    0.88196    1.000
    N3990    N        0.66399    0.56493    0.09101    1.000
    N3991    N        0.68057    0.60840    0.02924    1.000
    Si3992   Si       0.68859    0.59322    0.06870    1.000
    N3993    N        0.66900    0.62724    0.09131    1.000
    Si3994   Si       0.68481    0.74584    0.04927    1.000
    N3995    N        0.65803    0.71105    0.05485    1.000
    Si3996   Si       0.64986    0.70567    0.01208    1.000
    N3997    N        0.67295    0.74312    0.00533    1.000
    Si3998   Si       0.69042    0.65571    0.11537    1.000
    N3999    N        0.65864    0.68579    0.11909    1.000
    N4000    N        0.67007    0.74061    0.22932    1.000
    Si4001   Si       0.67810    0.53999    0.12465    1.000
    Si4002   Si       0.64408    0.52246    0.19059    1.000
    Si4003   Si       0.66621    0.60341    0.16464    1.000
    N4004    N        0.67325    0.54353    0.21513    1.000
    N4005    N        0.65103    0.60510    0.20536    1.000
    N4006    N        0.64443    0.52298    0.14581    1.000
    Si4007   Si       0.65618    0.57701    0.23778    1.000
    N4008    N        0.69023    0.56964    0.15616    1.000
    N4009    N        0.67595    0.67176    0.21848    1.000
    N4010    N        0.68188    0.75049    0.13159    1.000
    N4011    N        0.68832    0.63893    0.15823    1.000
    Si4012   Si       0.64826    0.72417    0.13784    1.000
    Si4013   Si       0.64141    0.64733    0.21693    1.000
    N4014    N        0.67283    0.59784    0.27289    1.000
    Si4015   Si       0.67590    0.52477    0.33148    1.000
    Si4016   Si       0.68263    0.57718    0.37040    1.000
    Si4017   Si       0.64347    0.62752    0.29136    1.000
    Si4018   Si       0.67768    0.65219    0.43669    1.000
    N4019    N        0.66683    0.64710    0.32434    1.000
    N4020    N        0.67296    0.70406    0.28717    1.000
    Si4021   Si       0.64873    0.74068    0.29321    1.000
    Si4022   Si       0.65037    0.64444    0.36734    1.000
    Si4023   Si       0.64710    0.75263    0.36333    1.000
    N4024    N        0.67612    0.69271    0.45461    1.000
    N4025    N        0.66968    0.53632    0.37494    1.000
    Si4026   Si       0.64957    0.51783    0.40806    1.000
    N4027    N        0.64936    0.60357    0.38051    1.000
    N4028    N        0.64245    0.62605    0.44558    1.000
    Si4029   Si       0.63897    0.71252    0.46647    1.000
    N4030    N        0.68157    0.66017    0.39362    1.000
    N4031    N        0.68088    0.73143    0.38388    1.000
    Si4032   Si       0.69589    0.67605    0.31266    1.000
    Si4033   Si       0.68632    0.70379    0.24578    1.000
    N4034    N        0.66052    0.54662    0.56587    1.000
    Si4035   Si       0.65888    0.62038    0.59777    1.000
    Si4036   Si       0.65212    0.57709    0.53524    1.000
    N4037    N        0.65327    0.61470    0.55463    1.000
    Si4038   Si       0.65510    0.56173    0.60943    1.000
    N4039    N        0.67777    0.58798    0.50445    1.000
    N4040    N        0.68838    0.58994    0.61083    1.000
    Si4041   Si       0.67067    0.62979    0.51596    1.000
    N4042    N        0.65889    0.72776    0.60929    1.000
    N4043    N        0.67847    0.70243    0.54732    1.000
    Si4044   Si       0.68159    0.73755    0.57339    1.000
    N4045    N        0.66366    0.65765    0.61593    1.000
    Si4046   Si       0.63944    0.68941    0.53246    1.000
    N4047    N        0.63799    0.65507    0.50662    1.000
    Si4048   Si       0.63652    0.68953    0.60697    1.000
    Si4049   Si       0.68137    0.61809    0.69978    1.000
    Si4050   Si       0.67363    0.55417    0.72533    1.000
    N4051    N        0.66335    0.58070    0.69000    1.000
    N4052    N        0.66070    0.52070    0.70342    1.000
    N4053    N        0.64438    0.53153    0.63739    1.000
    N4054    N        0.67582    0.62499    0.74336    1.000
    Si4055   Si       0.63800    0.54688    0.67667    1.000
    N4056    N        0.67631    0.65826    0.68388    1.000
    Si4057   Si       0.67958    0.73771    0.64550    1.000
    Si4058   Si       0.66818    0.69688    0.70511    1.000
    N4059    N        0.65197    0.72828    0.67914    1.000
    Si4060   Si       0.63659    0.64288    0.74557    1.000
    Si4061   Si       0.69336    0.66439    0.64439    1.000
    N4062    N        0.63588    0.68719    0.73330    1.000
    N4063    N        0.65400    0.54651    0.83512    1.000
    Si4064   Si       0.65336    0.53295    0.79420    1.000
    Si4065   Si       0.68523    0.57658    0.84554    1.000
    N4066    N        0.64474    0.55755    0.75961    1.000
    N4067    N        0.69238    0.51474    0.78769    1.000
    N4068    N        0.63979    0.62151    0.83739    1.000
    Si4069   Si       0.66008    0.65910    0.82533    1.000
    N4070    N        0.64691    0.70139    0.82066    1.000
    Si4071   Si       0.64133    0.73866    0.84056    1.000
    N4072    N        0.66930    0.66467    0.86906    1.000
    N4073    N        0.68015    0.59438    0.88431    1.000
    N4074    N        0.66259    0.56550    0.94373    1.000
    Si4075   Si       0.67181    0.52271    0.94469    1.000
    Si4076   Si       0.68891    0.59837    0.93058    1.000
    Si4077   Si       0.65096    0.62786    0.88164    1.000
    N4078    N        0.67776    0.51466    0.98560    1.000
    N4079    N        0.66730    0.67135    0.99080    1.000
    N4080    N        0.65725    0.63371    0.92810    1.000
    Si4081   Si       0.67985    0.70505    0.88547    1.000
    N4082    N        0.64968    0.73576    0.88264    1.000
    N4083    N        0.68514    0.70089    0.92720    1.000
    Si4084   Si       0.66214    0.67208    0.94894    1.000
    N4085    N        0.63513    0.74504    0.77274    1.000
    N4086    N        0.65298    0.85135    0.04917    1.000
    N4087    N        0.67572    0.78348    0.06930    1.000
    Si4088   Si       0.68501    0.82169    0.04766    1.000
    Si4089   Si       0.66957    0.78941    0.11299    1.000
    N4090    N        0.68498    0.81220    0.00528    1.000
    N4091    N        0.69389    0.88120    0.00497    1.000
    N4092    N        0.69400    0.82332    0.12360    1.000
    Si4093   Si       0.65435    0.88717    0.02141    1.000
    Si4094   Si       0.65403    0.97097    0.10247    1.000
    N4095    N        0.68201    0.97639    0.06782    1.000
    Si4096   Si       0.65327    0.97187    0.03560    1.000
    N4097    N        0.64359    0.92947    0.03327    1.000
    N4098    N        0.66618    0.99267    0.00151    1.000
    Si4099   Si       0.64759    0.82064    0.21176    1.000
    Si4100   Si       0.68154    0.85368    0.15231    1.000
    N4101    N        0.64611    0.84219    0.17378    1.000
    N4102    N        0.68722    0.80880    0.22206    1.000
    Si4103   Si       0.69389    0.77239    0.24469    1.000
    Si4104   Si       0.68189    0.97522    0.17549    1.000
    Si4105   Si       0.68389    0.93774    0.23756    1.000
    N4106    N        0.67533    0.89249    0.13260    1.000
    N4107    N        0.68205    0.96075    0.13496    1.000
    N4108    N        0.66224    0.94771    0.20135    1.000
    N4109    N        0.66955    0.84492    0.30361    1.000
    N4110    N        0.66396    0.78930    0.34751    1.000
    Si4111   Si       0.67192    0.86388    0.26372    1.000
    N4112    N        0.68171    0.76913    0.28646    1.000
    Si4113   Si       0.68247    0.80354    0.31216    1.000
    Si4114   Si       0.66721    0.86225    0.34141    1.000
    N4115    N        0.66519    0.90572    0.34267    1.000
    Si4116   Si       0.66836    0.97865    0.29715    1.000
    N4117    N        0.66277    0.90655    0.25725    1.000
    N4118    N        0.68949    0.97542    0.25944    1.000
    N4119    N        0.66045    0.84422    0.46534    1.000
    N4120    N        0.68156    0.80347    0.41120    1.000
    Si4121   Si       0.64801    0.80871    0.38330    1.000
    Si4122   Si       0.69420    0.83191    0.44030    1.000
    N4123    N        0.67620    0.92882    0.44607    1.000
    N4124    N        0.64372    0.99134    0.46406    1.000
    Si4125   Si       0.65436    0.95098    0.47641    1.000
    N4126    N        0.69620    0.96076    0.32626    1.000
    Si4127   Si       0.67868    0.81441    0.56516    1.000
    N4128    N        0.66766    0.77149    0.55125    1.000
    Si4129   Si       0.67808    0.86247    0.50056    1.000
    N4130    N        0.68959    0.83016    0.52761    1.000
    N4131    N        0.63724    0.82953    0.57259    1.000
    N4132    N        0.65131    0.88919    0.52302    1.000
    N4133    N        0.68393    0.99268    0.56701    1.000
    Si4134   Si       0.67764    0.91919    0.54160    1.000
    Si4135   Si       0.67284    0.96361    0.59783    1.000
    N4136    N        0.65058    0.93377    0.57495    1.000
    N4137    N        0.68062    0.95118    0.51166    1.000
    Si4138   Si       0.68851    0.81559    0.65826    1.000
    N4139    N        0.67268    0.81806    0.69937    1.000
    N4140    N        0.65026    0.83274    0.64315    1.000
    N4141    N        0.64762    0.97412    0.63207    1.000
    Si4142   Si       0.66949    0.96459    0.66700    1.000
    Si4143   Si       0.64758    0.95269    0.74550    1.000
    N4144    N        0.65138    0.97494    0.70656    1.000
    N4145    N        0.67057    0.92212    0.66253    1.000
    Si4146   Si       0.67124    0.84655    0.79754    1.000
    Si4147   Si       0.66234    0.77572    0.78536    1.000
    N4148    N        0.64393    0.81372    0.79138    1.000
    N4149    N        0.67274    0.76321    0.82484    1.000
    N4150    N        0.64723    0.86228    0.86819    1.000
    Si4151   Si       0.68842    0.84975    0.86863    1.000
    N4152    N        0.65910    0.90449    0.91934    1.000
    N4153    N        0.69219    0.77890    0.75527    1.000
    N4154    N        0.65107    0.88629    0.79553    1.000
    Si4155   Si       0.68087    0.97012    0.85962    1.000
    Si4156   Si       0.68161    0.91584    0.80086    1.000
    N4157    N        0.67997    0.92885    0.84460    1.000
    N4158    N        0.68386    0.94558    0.76920    1.000
    N4159    N        0.65567    0.97506    0.89423    1.000
    Si4160   Si       0.66215    0.78073    0.98702    1.000
    N4161    N        0.67032    0.78101    0.94260    1.000
    Si4162   Si       0.63863    0.76103    0.91720    1.000
    Si4163   Si       0.65383    0.90440    0.87339    1.000
    Si4164   Si       0.67135    0.00381    0.92107    1.000
    N4165    N        0.67617    0.00646    0.83746    1.000
    N4166    N        0.72867    0.02017    0.00485    1.000
    Si4167   Si       0.70571    0.05697    0.01259    1.000
    N4168    N        0.73405    0.08711    0.00405    1.000
    N4169    N        0.74582    0.09154    0.12003    1.000
    Si4170   Si       0.74103    0.18125    0.10415    1.000
    N4171    N        0.74520    0.19340    0.06439    1.000
    N4172    N        0.70227    0.16636    0.11514    1.000
    N4173    N        0.72155    0.15588    0.00354    1.000
    N4174    N        0.74970    0.20631    0.13979    1.000
    Si4175   Si       0.75435    0.16597    0.02999    1.000
    Si4176   Si       0.70293    0.03831    0.19770    1.000
    Si4177   Si       0.71268    0.07996    0.14406    1.000
    N4178    N        0.73166    0.04417    0.16462    1.000
    N4179    N        0.72385    0.03238    0.23472    1.000
    Si4180   Si       0.71030    0.11015    0.20920    1.000
    N4181    N        0.74791    0.09489    0.22400    1.000
    N4182    N        0.71957    0.12284    0.16393    1.000
    Si4183   Si       0.71792    0.22248    0.16345    1.000
    N4184    N        0.73511    0.23224    0.20135    1.000
    N4185    N        0.72187    0.09593    0.35002    1.000
    Si4186   Si       0.73742    0.06989    0.25816    1.000
    N4187    N        0.71779    0.02097    0.31419    1.000
    N4188    N        0.70121    0.07719    0.27713    1.000
    Si4189   Si       0.73603    0.13137    0.32769    1.000
    Si4190   Si       0.74459    0.19011    0.45555    1.000
    N4191    N        0.71801    0.16183    0.30531    1.000
    Si4192   Si       0.71819    0.19871    0.33073    1.000
    Si4193   Si       0.71018    0.16530    0.26211    1.000
    N4194    N        0.70014    0.19376    0.36965    1.000
    Si4195   Si       0.70632    0.01726    0.40235    1.000
    N4196    N        0.70470    0.02289    0.44617    1.000
    Si4197   Si       0.73984    0.04840    0.43850    1.000
    N4198    N        0.73325    0.04930    0.39406    1.000
    N4199    N        0.72879    0.08674    0.45527    1.000
    N4200    N        0.73754    0.15118    0.48060    1.000
    N4201    N        0.71003    0.20643    0.43145    1.000
    N4202    N        0.71365    0.13985    0.41397    1.000
    Si4203   Si       0.70686    0.22919    0.39381    1.000
    N4204    N        0.75582    0.22650    0.32539    1.000
    Si4205   Si       0.75520    0.14368    0.39899    1.000
    N4206    N        0.73728    0.25966    0.38409    1.000
    N4207    N        0.75018    0.17129    0.24539    1.000
    N4208    N        0.73016    0.09674    0.58216    1.000
    Si4209   Si       0.70246    0.07278    0.60632    1.000
    N4210    N        0.72706    0.15681    0.66967    1.000
    Si4211   Si       0.72032    0.13826    0.56956    1.000
    Si4212   Si       0.71222    0.20251    0.59405    1.000
    N4213    N        0.70002    0.16106    0.60041    1.000
    Si4214   Si       0.69939    0.24826    0.71096    1.000
    Si4215   Si       0.70221    0.02949    0.66599    1.000
    N4216    N        0.72086    0.04225    0.62916    1.000
    N4217    N        0.72138    0.03866    0.70616    1.000
    N4218    N        0.70246    0.21615    0.63403    1.000
    N4219    N        0.72058    0.24718    0.74799    1.000
    Si4220   Si       0.75005    0.21372    0.74614    1.000
    N4221    N        0.72335    0.05614    0.84064    1.000
    N4222    N        0.72452    0.11483    0.78548    1.000
    N4223    N        0.73254    0.04776    0.77942    1.000
    Si4224   Si       0.74135    0.08001    0.80864    1.000
    Si4225   Si       0.71082    0.02383    0.81457    1.000
    N4226    N        0.72512    0.17913    0.75800    1.000
    Si4227   Si       0.74942    0.14328    0.76625    1.000
    Si4228   Si       0.72686    0.18182    0.86833    1.000
    Si4229   Si       0.71590    0.25757    0.78984    1.000
    N4230    N        0.69406    0.11665    0.95006    1.000
    N4231    N        0.75119    0.23448    0.80532    1.000
    Si4232   Si       0.73732    0.25716    0.98837    1.000
    N4233    N        0.73885    0.08627    0.90118    1.000
    Si4234   Si       0.72644    0.12002    0.97780    1.000
    N4235    N        0.74915    0.01757    0.89829    1.000
    Si4236   Si       0.70550    0.11448    0.90806    1.000
    Si4237   Si       0.72160    0.04908    0.88489    1.000
    Si4238   Si       0.70343    0.25027    0.88700    1.000
    Si4239   Si       0.70473    0.04503    0.74727    1.000
    N4240    N        0.73245    0.21865    0.89188    1.000
    N4241    N        0.72663    0.15072    0.89929    1.000
    N4242    N        0.71072    0.30631    0.04077    1.000
    N4243    N        0.73676    0.35850    0.00336    1.000
    Si4244   Si       0.72578    0.37482    0.04262    1.000
    Si4245   Si       0.71648    0.37030    0.11012    1.000
    N4246    N        0.74699    0.37170    0.07943    1.000
    Si4247   Si       0.71059    0.32074    0.99932    1.000
    Si4248   Si       0.74948    0.28863    0.05056    1.000
    Si4249   Si       0.73993    0.43591    0.23123    1.000
    N4250    N        0.72412    0.41744    0.03534    1.000
    Si4251   Si       0.71637    0.50177    0.06978    1.000
    N4252    N        0.72726    0.47160    0.00667    1.000
    N4253    N        0.74807    0.47283    0.07237    1.000
    N4254    N        0.70428    0.32947    0.12390    1.000
    Si4255   Si       0.72922    0.29183    0.13031    1.000
    Si4256   Si       0.73994    0.31844    0.19628    1.000
    Si4257   Si       0.72001    0.26713    0.22307    1.000
    N4258    N        0.69863    0.30460    0.20749    1.000
    N4259    N        0.70411    0.25877    0.14521    1.000
    N4260    N        0.74685    0.35950    0.20728    1.000
    N4261    N        0.69653    0.44570    0.16365    1.000
    N4262    N        0.73903    0.38950    0.14342    1.000
    Si4263   Si       0.73421    0.43209    0.14899    1.000
    N4264    N        0.70787    0.46572    0.23280    1.000
    Si4265   Si       0.73911    0.50525    0.14109    1.000
    N4266    N        0.72368    0.33329    0.27480    1.000
    N4267    N        0.74211    0.29791    0.32077    1.000
    Si4268   Si       0.70836    0.29568    0.29170    1.000
    N4269    N        0.72180    0.37316    0.32304    1.000
    Si4270   Si       0.74982    0.34256    0.31024    1.000
    N4271    N        0.70603    0.26353    0.26318    1.000
    Si4272   Si       0.74349    0.36218    0.25119    1.000
    Si4273   Si       0.70759    0.38430    0.36519    1.000
    Si4274   Si       0.70380    0.40001    0.29321    1.000
    N4275    N        0.72739    0.46741    0.36521    1.000
    N4276    N        0.70119    0.44471    0.30022    1.000
    N4277    N        0.72719    0.40116    0.25402    1.000
    N4278    N        0.74125    0.36504    0.45011    1.000
    Si4279   Si       0.72270    0.32626    0.45888    1.000
    N4280    N        0.74158    0.28741    0.45206    1.000
    Si4281   Si       0.73667    0.26358    0.48851    1.000
    N4282    N        0.70863    0.43485    0.42982    1.000
    Si4283   Si       0.73727    0.44100    0.39775    1.000
    N4284    N        0.74298    0.40235    0.38099    1.000
    Si4285   Si       0.70451    0.38947    0.43701    1.000
    N4286    N        0.74276    0.50015    0.46223    1.000
    Si4287   Si       0.71625    0.33203    0.54751    1.000
    N4288    N        0.74583    0.37125    0.60909    1.000
    N4289    N        0.70553    0.37687    0.54826    1.000
    N4290    N        0.72319    0.33524    0.50341    1.000
    Si4291   Si       0.71903    0.38053    0.50688    1.000
    N4292    N        0.74352    0.27899    0.61915    1.000
    Si4293   Si       0.75184    0.32462    0.61420    1.000
    Si4294   Si       0.71215    0.44110    0.65724    1.000
    Si4295   Si       0.72487    0.39666    0.58088    1.000
    Si4296   Si       0.72988    0.49563    0.50387    1.000
    N4297    N        0.75288    0.42867    0.57395    1.000
    N4298    N        0.72742    0.33295    0.65341    1.000
    N4299    N        0.71511    0.31416    0.71893    1.000
    Si4300   Si       0.74091    0.30696    0.68701    1.000
    Si4301   Si       0.73452    0.37743    0.65303    1.000
    N4302    N        0.73012    0.26179    0.68287    1.000
    Si4303   Si       0.70848    0.43419    0.73138    1.000
    N4304    N        0.75237    0.42413    0.64560    1.000
    Si4305   Si       0.73953    0.50477    0.62654    1.000
    N4306    N        0.71857    0.45604    0.69598    1.000
    Si4307   Si       0.74798    0.48847    0.70140    1.000
    N4308    N        0.70860    0.47274    0.62812    1.000
    Si4309   Si       0.71199    0.25808    0.64107    1.000
    N4310    N        0.75230    0.31944    0.56872    1.000
    N4311    N        0.70688    0.28154    0.85608    1.000
    N4312    N        0.72428    0.29963    0.79260    1.000
    Si4313   Si       0.73668    0.30502    0.83421    1.000
    N4314    N        0.73423    0.34321    0.85334    1.000
    Si4315   Si       0.71043    0.37546    0.83450    1.000
    Si4316   Si       0.71461    0.33046    0.76312    1.000
    N4317    N        0.70823    0.36829    0.79221    1.000
    N4318    N        0.75212    0.42104    0.97081    1.000
    Si4319   Si       0.74538    0.38824    0.77834    1.000
    Si4320   Si       0.72495    0.45055    0.83869    1.000
    N4321    N        0.73660    0.40897    0.84608    1.000
    N4322    N        0.74241    0.42904    0.75878    1.000
    N4323    N        0.70037    0.45413    0.93199    1.000
    Si4324   Si       0.73213    0.48098    0.91415    1.000
    N4325    N        0.72572    0.35648    0.92564    1.000
    N4326    N        0.74446    0.30020    0.97760    1.000
    N4327    N        0.70634    0.27954    0.91895    1.000
    Si4328   Si       0.74694    0.28665    0.93643    1.000
    Si4329   Si       0.74057    0.38002    0.96324    1.000
    Si4330   Si       0.75441    0.34597    0.89266    1.000
    Si4331   Si       0.71221    0.43798    0.97231    1.000
    N4332    N        0.74476    0.46777    0.87483    1.000
    N4333    N        0.75237    0.35503    0.75174    1.000
    N4334    N        0.69316    0.26499    0.98951    1.000
    N4335    N        0.74578    0.49544    0.74335    1.000
    N4336    N        0.73166    0.59225    0.07421    1.000
    N4337    N        0.73076    0.53208    0.04133    1.000
    N4338    N        0.70964    0.51492    0.11042    1.000
    Si4339   Si       0.71921    0.51449    0.00196    1.000
    N4340    N        0.73080    0.65797    0.01589    1.000
    N4341    N        0.72478    0.73068    0.05049    1.000
    N4342    N        0.73206    0.66215    0.10771    1.000
    Si4343   Si       0.74025    0.69995    0.02184    1.000
    N4344    N        0.75160    0.72823    0.11942    1.000
    Si4345   Si       0.70982    0.54865    0.19147    1.000
    N4346    N        0.74793    0.55448    0.21200    1.000
    Si4347   Si       0.70546    0.66297    0.18758    1.000
    Si4348   Si       0.71860    0.73735    0.15014    1.000
    N4349    N        0.73640    0.64472    0.21271    1.000
    N4350    N        0.71989    0.69808    0.16704    1.000
    Si4351   Si       0.75165    0.68802    0.13792    1.000
    N4352    N        0.71439    0.50864    0.17698    1.000
    Si4353   Si       0.69404    0.63899    0.00384    1.000
    Si4354   Si       0.71146    0.60535    0.29956    1.000
    N4355    N        0.73812    0.57740    0.27714    1.000
    Si4356   Si       0.73084    0.54072    0.30024    1.000
    Si4357   Si       0.74486    0.57482    0.35485    1.000
    N4358    N        0.70093    0.56973    0.33047    1.000
    N4359    N        0.74870    0.61203    0.33374    1.000
    N4360    N        0.69856    0.51227    0.29356    1.000
    N4361    N        0.71849    0.64686    0.28831    1.000
    N4362    N        0.72323    0.69205    0.34458    1.000
    Si4363   Si       0.74338    0.65977    0.25372    1.000
    N4364    N        0.75266    0.74382    0.30875    1.000
    Si4365   Si       0.75276    0.73651    0.26548    1.000
    N4366    N        0.72909    0.70202    0.25211    1.000
    Si4367   Si       0.73261    0.59941    0.42956    1.000
    Si4368   Si       0.72068    0.52596    0.43426    1.000
    N4369    N        0.72113    0.56370    0.45428    1.000
    N4370    N        0.71910    0.58573    0.39038    1.000
    N4371    N        0.71281    0.63192    0.45283    1.000
    Si4372   Si       0.73792    0.63387    0.49056    1.000
    N4373    N        0.74938    0.51827    0.40419    1.000
    N4374    N        0.72046    0.75103    0.43774    1.000
    Si4375   Si       0.71661    0.71128    0.45539    1.000
    N4376    N        0.73558    0.69140    0.42146    1.000
    Si4377   Si       0.70642    0.69538    0.38439    1.000
    Si4378   Si       0.71400    0.56645    0.49563    1.000
    N4379    N        0.72551    0.53268    0.59749    1.000
    N4380    N        0.71742    0.53250    0.52406    1.000
    Si4381   Si       0.73074    0.57719    0.60430    1.000
    N4382    N        0.74933    0.59372    0.50490    1.000
    N4383    N        0.74862    0.60659    0.57629    1.000
    Si4384   Si       0.69933    0.52344    0.56254    1.000
    Si4385   Si       0.71658    0.68904    0.53248    1.000
    N4386    N        0.72378    0.74585    0.58576    1.000
    N4387    N        0.70768    0.64985    0.51610    1.000
    N4388    N        0.73693    0.67830    0.57051    1.000
    N4389    N        0.72885    0.71397    0.49644    1.000
    Si4390   Si       0.75218    0.62049    0.66167    1.000
    N4391    N        0.72524    0.61383    0.69567    1.000
    Si4392   Si       0.74359    0.58955    0.72439    1.000
    N4393    N        0.71608    0.55810    0.73569    1.000
    N4394    N        0.74640    0.51786    0.66838    1.000
    N4395    N        0.75411    0.74675    0.73334    1.000
    N4396    N        0.70281    0.71311    0.72245    1.000
    N4397    N        0.70693    0.70585    0.64904    1.000
    Si4398   Si       0.74789    0.69145    0.64791    1.000
    Si4399   Si       0.74570    0.70544    0.72288    1.000
    N4400    N        0.73291    0.65052    0.63322    1.000
    N4401    N        0.75387    0.58309    0.63927    1.000
    N4402    N        0.72316    0.55871    0.85346    1.000
    Si4403   Si       0.72802    0.52806    0.76552    1.000
    N4404    N        0.74428    0.61763    0.76128    1.000
    Si4405   Si       0.70380    0.62064    0.77763    1.000
    Si4406   Si       0.74462    0.57891    0.82131    1.000
    N4407    N        0.70409    0.59154    0.80733    1.000
    N4408    N        0.71705    0.72787    0.79051    1.000
    Si4409   Si       0.73164    0.68772    0.79472    1.000
    Si4410   Si       0.71164    0.74776    0.82810    1.000
    N4411    N        0.71455    0.71757    0.86193    1.000
    Si4412   Si       0.71542    0.74371    0.75130    1.000
    Si4413   Si       0.75126    0.69448    0.86735    1.000
    N4414    N        0.69692    0.65919    0.79845    1.000
    N4415    N        0.70370    0.51734    0.91406    1.000
    Si4416   Si       0.73976    0.58523    0.96787    1.000
    N4417    N        0.73176    0.58138    0.92538    1.000
    N4418    N        0.73849    0.54095    0.97568    1.000
    N4419    N        0.70541    0.61487    0.96958    1.000
    Si4420   Si       0.72930    0.55036    0.89684    1.000
    N4421    N        0.74704    0.66272    0.89647    1.000
    N4422    N        0.75342    0.68308    0.75704    1.000
    N4423    N        0.72479    0.83220    0.06152    1.000
    Si4424   Si       0.73364    0.83090    0.10353    1.000
    N4425    N        0.75007    0.86964    0.11593    1.000
    N4426    N        0.72242    0.92569    0.08827    1.000
    Si4427   Si       0.72008    0.95812    0.05896    1.000
    N4428    N        0.71364    0.95237    0.01585    1.000
    Si4429   Si       0.72044    0.83553    0.21526    1.000
    N4430    N        0.71441    0.86011    0.17956    1.000
    N4431    N        0.74111    0.76535    0.17260    1.000
    N4432    N        0.73735    0.76754    0.24414    1.000
    Si4433   Si       0.74784    0.87882    0.15927    1.000
    N4434    N        0.73545    0.92079    0.15842    1.000
    Si4435   Si       0.70398    0.92405    0.12726    1.000
    Si4436   Si       0.74474    0.94329    0.19396    1.000
    Si4437   Si       0.72443    0.98877    0.23749    1.000
    N4438    N        0.72144    0.97947    0.19537    1.000
    N4439    N        0.72439    0.92592    0.23058    1.000
    N4440    N        0.72713    0.81021    0.31178    1.000
    Si4441   Si       0.73220    0.85562    0.31756    1.000
    N4442    N        0.70888    0.85551    0.35410    1.000
    Si4443   Si       0.75033    0.77891    0.33311    1.000
    N4444    N        0.71343    0.86039    0.24985    1.000
    Si4445   Si       0.72488    0.98738    0.34139    1.000
    Si4446   Si       0.73424    0.89606    0.26110    1.000
    N4447    N        0.72274    0.89586    0.30393    1.000
    Si4448   Si       0.70580    0.91912    0.33673    1.000
    N4449    N        0.73048    0.91612    0.37148    1.000
    N4450    N        0.74544    0.92537    0.43751    1.000
    N4451    N        0.73778    0.76953    0.37405    1.000
    Si4452   Si       0.70343    0.76625    0.40195    1.000
    N4453    N        0.72510    0.81168    0.46656    1.000
    N4454    N        0.70750    0.86972    0.42360    1.000
    Si4455   Si       0.72892    0.87538    0.38683    1.000
    Si4456   Si       0.75059    0.77759    0.45387    1.000
    Si4457   Si       0.74483    0.94603    0.39950    1.000
    N4458    N        0.71241    0.88688    0.48832    1.000
    Si4459   Si       0.70993    0.90524    0.44867    1.000
    N4460    N        0.72449    0.98132    0.38732    1.000
    N4461    N        0.71133    0.81434    0.59312    1.000
    Si4462   Si       0.72884    0.78008    0.61295    1.000
    Si4463   Si       0.72636    0.81839    0.50974    1.000
    Si4464   Si       0.73272    0.84675    0.61552    1.000
    N4465    N        0.74768    0.78374    0.52493    1.000
    N4466    N        0.71578    0.88687    0.61477    1.000
    Si4467   Si       0.74138    0.89152    0.51859    1.000
    N4468    N        0.71852    0.90863    0.55203    1.000
    Si4469   Si       0.73402    0.91689    0.58900    1.000
    N4470    N        0.70946    0.94666    0.61215    1.000
    N4471    N        0.74411    0.98427    0.52149    1.000
    Si4472   Si       0.70135    0.98639    0.52819    1.000
    N4473    N        0.72749    0.83569    0.65661    1.000
    N4474    N        0.74316    0.81364    0.71918    1.000
    Si4475   Si       0.74739    0.84963    0.69388    1.000
    Si4476   Si       0.70022    0.81484    0.73225    1.000
    N4477    N        0.69737    0.77620    0.64295    1.000
    N4478    N        0.73085    0.88115    0.71878    1.000
    Si4479   Si       0.71107    0.91649    0.64436    1.000
    N4480    N        0.74467    0.92803    0.66854    1.000
    N4481    N        0.74921    0.98440    0.74378    1.000
    Si4482   Si       0.74629    0.97030    0.65557    1.000
    N4483    N        0.70738    0.98714    0.66794    1.000
    Si4484   Si       0.73313    0.81327    0.84828    1.000
    Si4485   Si       0.73016    0.87336    0.76138    1.000
    N4486    N        0.74458    0.77556    0.83407    1.000
    N4487    N        0.69841    0.83379    0.82944    1.000
    N4488    N        0.71881    0.89603    0.79649    1.000
    N4489    N        0.72950    0.98308    0.80916    1.000
    Si4490   Si       0.71371    0.97949    0.77003    1.000
    Si4491   Si       0.72115    0.91970    0.86557    1.000
    N4492    N        0.70849    0.81303    0.88495    1.000
    Si4493   Si       0.70595    0.84475    0.98530    1.000
    N4494    N        0.74332    0.78591    0.93941    1.000
    Si4495   Si       0.70423    0.80414    0.92626    1.000
    N4496    N        0.74945    0.84431    0.99116    1.000
    N4497    N        0.70869    0.88409    0.88588    1.000
    Si4498   Si       0.69616    0.88445    0.92770    1.000
    N4499    N        0.70518    0.99031    0.94432    1.000
    N4500    N        0.72157    0.96182    0.87751    1.000
    Si4501   Si       0.70606    0.98707    0.98789    1.000
    Si4502   Si       0.73534    0.98045    0.91590    1.000
    N4503    N        0.71833    0.91245    0.95154    1.000
    N4504    N        0.70126    0.84449    0.94296    1.000
    N4505    N        0.69731    0.84512    0.76145    1.000
    Si4506   Si       0.72023    0.91335    0.99681    1.000
    Si4507   Si       0.77334    0.06972    0.09521    1.000
    Si4508   Si       0.77055    0.09077    0.02628    1.000
    N4509    N        0.76475    0.05561    0.05448    1.000
    Si4510   Si       0.76277    0.01636    0.03310    1.000
    N4511    N        0.80782    0.09428    0.08912    1.000
    N4512    N        0.77284    0.12922    0.04485    1.000
    N4513    N        0.80459    0.08844    0.99861    1.000
    N4514    N        0.79847    0.20005    0.19631    1.000
    Si4515   Si       0.79651    0.13422    0.08023    1.000
    N4516    N        0.78949    0.19186    0.01849    1.000
    Si4517   Si       0.77482    0.22162    0.04951    1.000
    N4518    N        0.79662    0.22593    0.08649    1.000
    N4519    N        0.77032    0.14947    0.10991    1.000
    N4520    N        0.78785    0.03936    0.12084    1.000
    Si4521   Si       0.77523    0.03773    0.16261    1.000
    Si4522   Si       0.78730    0.10349    0.20692    1.000
    N4523    N        0.79888    0.06519    0.18702    1.000
    N4524    N        0.80216    0.12332    0.24254    1.000
    Si4525   Si       0.75689    0.12781    0.14442    1.000
    N4526    N        0.78861    0.13297    0.17520    1.000
    Si4527   Si       0.78891    0.21318    0.15441    1.000
    N4528    N        0.79880    0.25434    0.14698    1.000
    Si4529   Si       0.76467    0.20717    0.22434    1.000
    N4530    N        0.75618    0.25258    0.02763    1.000
    N4531    N        0.79626    0.01145    0.00848    1.000
    Si4532   Si       0.78969    0.07969    0.30623    1.000
    N4533    N        0.79067    0.06787    0.34670    1.000
    N4534    N        0.77087    0.04925    0.28096    1.000
    N4535    N        0.76367    0.11403    0.30073    1.000
    Si4536   Si       0.77662    0.14457    0.27118    1.000
    N4537    N        0.79233    0.17486    0.30137    1.000
    Si4538   Si       0.78833    0.21770    0.29844    1.000
    Si4539   Si       0.80156    0.16811    0.34502    1.000
    N4540    N        0.77933    0.23382    0.25593    1.000
    N4541    N        0.76140    0.15363    0.35669    1.000
    N4542    N        0.75648    0.22302    0.48055    1.000
    N4543    N        0.81000    0.20176    0.37032    1.000
    N4544    N        0.79709    0.25432    0.41121    1.000
    Si4545   Si       0.75570    0.07652    0.36964    1.000
    N4546    N        0.79597    0.11249    0.46137    1.000
    N4547    N        0.78236    0.04625    0.44325    1.000
    Si4548   Si       0.79837    0.08176    0.42779    1.000
    N4549    N        0.77314    0.10507    0.39968    1.000
    Si4550   Si       0.80992    0.02268    0.46801    1.000
    Si4551   Si       0.75698    0.11121    0.48062    1.000
    N4552    N        0.77299    0.17700    0.42423    1.000
    Si4553   Si       0.81343    0.18852    0.41292    1.000
    Si4554   Si       0.75758    0.01104    0.29517    1.000
    N4555    N        0.80133    0.02540    0.51159    1.000
    Si4556   Si       0.76616    0.07939    0.55914    1.000
    N4557    N        0.80636    0.08247    0.57366    1.000
    N4558    N        0.75595    0.03586    0.56500    1.000
    Si4559   Si       0.75629    0.02648    0.60888    1.000
    N4560    N        0.79423    0.03731    0.62403    1.000
    N4561    N        0.80093    0.20445    0.53248    1.000
    Si4562   Si       0.78265    0.18782    0.56878    1.000
    Si4563   Si       0.77252    0.24914    0.60862    1.000
    Si4564   Si       0.78787    0.23392    0.50585    1.000
    N4565    N        0.81026    0.18157    0.60030    1.000
    N4566    N        0.75707    0.15505    0.56156    1.000
    N4567    N        0.79060    0.04323    0.72129    1.000
    Si4568   Si       0.75746    0.01405    0.71276    1.000
    N4569    N        0.77215    0.14353    0.72799    1.000
    Si4570   Si       0.77107    0.24007    0.68281    1.000
    N4571    N        0.78490    0.22792    0.64430    1.000
    Si4572   Si       0.76440    0.16329    0.68938    1.000
    N4573    N        0.79897    0.15633    0.66508    1.000
    Si4574   Si       0.81008    0.19367    0.64103    1.000
    N4575    N        0.76155    0.20572    0.70470    1.000
    N4576    N        0.80299    0.25587    0.70849    1.000
    N4577    N        0.75994    0.09291    0.51931    1.000
    N4578    N        0.75291    0.21657    0.58626    1.000
    N4579    N        0.78213    0.09170    0.81708    1.000
    N4580    N        0.80455    0.02899    0.79803    1.000
    Si4581   Si       0.80953    0.06004    0.82921    1.000
    N4582    N        0.79499    0.05392    0.86927    1.000
    Si4583   Si       0.80860    0.12358    0.80510    1.000
    N4584    N        0.76865    0.17930    0.85094    1.000
    N4585    N        0.78574    0.15559    0.78933    1.000
    Si4586   Si       0.78068    0.19614    0.81289    1.000
    N4587    N        0.79133    0.20852    0.76121    1.000
    Si4588   Si       0.80750    0.15964    0.86467    1.000
    N4589    N        0.81179    0.22268    0.83008    1.000
    Si4590   Si       0.78982    0.01181    0.88511    1.000
    N4591    N        0.79108    0.12764    0.88905    1.000
    N4592    N        0.76309    0.12256    0.95537    1.000
    Si4593   Si       0.80161    0.10497    0.95838    1.000
    Si4594   Si       0.78360    0.08539    0.89545    1.000
    N4595    N        0.80831    0.07284    0.92976    1.000
    Si4596   Si       0.76479    0.14720    0.91757    1.000
    N4597    N        0.79820    0.24531    0.89420    1.000
    Si4598   Si       0.76995    0.22238    0.91639    1.000
    N4599    N        0.78249    0.18414    0.92996    1.000
    Si4600   Si       0.80236    0.16866    0.74835    1.000
    N4601    N        0.75771    0.24692    0.94955    1.000
    N4602    N        0.77852    0.31591    0.03429    1.000
    Si4603   Si       0.79295    0.26515    0.10341    1.000
    N4604    N        0.81297    0.48239    0.07322    1.000
    Si4605   Si       0.78802    0.39174    0.07631    1.000
    N4606    N        0.79023    0.42314    0.04678    1.000
    Si4607   Si       0.78114    0.46146    0.09793    1.000
    N4608    N        0.79652    0.41982    0.10846    1.000
    N4609    N        0.79405    0.47055    0.00654    1.000
    Si4610   Si       0.75717    0.44897    0.03099    1.000
    N4611    N        0.75838    0.30161    0.16167    1.000
    Si4612   Si       0.79931    0.28645    0.17539    1.000
    N4613    N        0.75690    0.29386    0.22693    1.000
    N4614    N        0.80558    0.38411    0.16980    1.000
    N4615    N        0.75316    0.28073    0.09377    1.000
    Si4616   Si       0.78147    0.46100    0.17629    1.000
    N4617    N        0.75486    0.42855    0.19139    1.000
    Si4618   Si       0.76307    0.38874    0.18073    1.000
    N4619    N        0.75812    0.46746    0.13839    1.000
    N4620    N        0.77675    0.49366    0.20512    1.000
    N4621    N        0.77909    0.36656    0.27583    1.000
    N4622    N        0.78027    0.35065    0.34099    1.000
    N4623    N        0.80203    0.27475    0.34553    1.000
    Si4624   Si       0.79872    0.31889    0.36472    1.000
    N4625    N        0.80506    0.30043    0.27990    1.000
    Si4626   Si       0.75666    0.26512    0.34496    1.000
    Si4627   Si       0.77848    0.39288    0.35403    1.000
    Si4628   Si       0.78513    0.41140    0.27932    1.000
    N4629    N        0.77667    0.42288    0.32226    1.000
    N4630    N        0.79217    0.48637    0.34950    1.000
    N4631    N        0.77644    0.44562    0.25379    1.000
    Si4632   Si       0.79046    0.48861    0.24936    1.000
    Si4633   Si       0.80724    0.45321    0.32378    1.000
    Si4634   Si       0.77959    0.49212    0.44036    1.000
    N4635    N        0.80588    0.47257    0.47032    1.000
    Si4636   Si       0.76192    0.27846    0.41516    1.000
    N4637    N        0.77525    0.31558    0.39833    1.000
    N4638    N        0.80407    0.35458    0.48378    1.000
    Si4639   Si       0.77460    0.38247    0.47024    1.000
    N4640    N        0.77551    0.45763    0.41027    1.000
    N4641    N        0.80614    0.40483    0.44736    1.000
    Si4642   Si       0.80569    0.42590    0.41092    1.000
    Si4643   Si       0.75541    0.50079    0.36584    1.000
    Si4644   Si       0.78840    0.27573    0.24909    1.000
    Si4645   Si       0.78208    0.29309    0.55366    1.000
    Si4646   Si       0.78838    0.37295    0.59683    1.000
    N4647    N        0.80123    0.26913    0.58463    1.000
    N4648    N        0.76361    0.26796    0.52147    1.000
    N4649    N        0.80018    0.37700    0.55494    1.000
    N4650    N        0.79457    0.33332    0.61802    1.000
    Si4651   Si       0.77381    0.43826    0.61070    1.000
    Si4652   Si       0.76972    0.43260    0.53329    1.000
    Si4653   Si       0.80565    0.47707    0.51426    1.000
    N4654    N        0.76133    0.47185    0.52157    1.000
    N4655    N        0.80807    0.40991    0.60979    1.000
    N4656    N        0.77764    0.48166    0.61706    1.000
    N4657    N        0.75682    0.40199    0.50495    1.000
    N4658    N        0.81298    0.44226    0.53830    1.000
    Si4659   Si       0.78164    0.35645    0.72012    1.000
    N4660    N        0.78232    0.31777    0.69916    1.000
    N4661    N        0.76192    0.38123    0.68916    1.000
    N4662    N        0.78408    0.46194    0.70003    1.000
    Si4663   Si       0.77795    0.42077    0.68138    1.000
    Si4664   Si       0.81599    0.50277    0.62645    1.000
    N4665    N        0.77699    0.28904    0.84015    1.000
    Si4666   Si       0.78090    0.45249    0.96865    1.000
    Si4667   Si       0.78969    0.25805    0.81205    1.000
    N4668    N        0.78147    0.38627    0.80435    1.000
    N4669    N        0.80705    0.49153    0.77790    1.000
    Si4670   Si       0.77783    0.39515    0.84588    1.000
    Si4671   Si       0.78165    0.46799    0.84493    1.000
    N4672    N        0.80319    0.43061    0.84872    1.000
    Si4673   Si       0.76589    0.46946    0.76943    1.000
    N4674    N        0.79719    0.50734    0.84342    1.000
    Si4675   Si       0.80433    0.33279    0.93519    1.000
    N4676    N        0.78184    0.36268    0.95833    1.000
    N4677    N        0.77305    0.30979    0.91030    1.000
    Si4678   Si       0.79860    0.28675    0.87991    1.000
    N4679    N        0.79056    0.36767    0.87811    1.000
    N4680    N        0.75529    0.46833    0.81067    1.000
    Si4681   Si       0.77576    0.33004    0.99201    1.000
    N4682    N        0.76251    0.48466    0.94749    1.000
    N4683    N        0.81313    0.27240    0.77669    1.000
    N4684    N        0.78606    0.55134    0.07794    1.000
    N4685    N        0.76547    0.59149    0.00703    1.000
    Si4686   Si       0.78684    0.56478    0.11937    1.000
    Si4687   Si       0.75509    0.62658    0.09250    1.000
    Si4688   Si       0.75637    0.56735    0.04825    1.000
    N4689    N        0.78536    0.67466    0.16243    1.000
    N4690    N        0.78835    0.66169    0.24493    1.000
    Si4691   Si       0.76814    0.63511    0.02031    1.000
    N4692    N        0.78576    0.63710    0.05950    1.000
    Si4693   Si       0.80885    0.67451    0.05803    1.000
    N4694    N        0.77728    0.70036    0.04650    1.000
    Si4695   Si       0.76070    0.73106    0.07603    1.000
    N4696    N        0.77708    0.60626    0.12246    1.000
    N4697    N        0.76884    0.53653    0.14714    1.000
    N4698    N        0.79879    0.61409    0.19104    1.000
    Si4699   Si       0.77951    0.53430    0.18854    1.000
    Si4700   Si       0.77749    0.65070    0.20156    1.000
    N4701    N        0.76834    0.52150    0.27302    1.000
    Si4702   Si       0.79077    0.51494    0.31313    1.000
    N4703    N        0.80427    0.57616    0.25464    1.000
    Si4704   Si       0.76449    0.55965    0.25035    1.000
    N4705    N        0.75358    0.53263    0.33531    1.000
    Si4706   Si       0.76117    0.70941    0.33358    1.000
    Si4707   Si       0.78296    0.63946    0.33193    1.000
    Si4708   Si       0.80520    0.68635    0.27524    1.000
    N4709    N        0.78289    0.67963    0.31154    1.000
    N4710    N        0.79382    0.72771    0.26242    1.000
    N4711    N        0.79991    0.65040    0.36984    1.000
    N4712    N        0.78498    0.72211    0.36917    1.000
    N4713    N        0.78705    0.57490    0.37476    1.000
    Si4714   Si       0.79950    0.61490    0.39398    1.000
    N4715    N        0.76738    0.62373    0.42136    1.000
    N4716    N        0.80623    0.53033    0.44138    1.000
    Si4717   Si       0.81031    0.55228    0.40460    1.000
    N4718    N        0.77282    0.65569    0.48061    1.000
    N4719    N        0.78038    0.75413    0.47472    1.000
    Si4720   Si       0.81063    0.69176    0.38755    1.000
    Si4721   Si       0.76997    0.66381    0.43818    1.000
    N4722    N        0.80947    0.67909    0.42923    1.000
    N4723    N        0.81142    0.61723    0.30960    1.000
    Si4724   Si       0.77259    0.59766    0.54211    1.000
    N4725    N        0.79277    0.56222    0.55392    1.000
    N4726    N        0.80760    0.62424    0.53429    1.000
    N4727    N        0.77854    0.72235    0.54395    1.000
    N4728    N        0.79873    0.65212    0.59622    1.000
    N4729    N        0.77404    0.70573    0.61790    1.000
    Si4730   Si       0.75759    0.74385    0.51014    1.000
    Si4731   Si       0.75528    0.71603    0.57985    1.000
    Si4732   Si       0.75464    0.64635    0.59574    1.000
    Si4733   Si       0.80164    0.67061    0.69172    1.000
    Si4734   Si       0.77196    0.55449    0.66677    1.000
    N4735    N        0.78079    0.57767    0.70403    1.000
    N4736    N        0.81060    0.54149    0.65162    1.000
    N4737    N        0.79154    0.63600    0.66253    1.000
    Si4738   Si       0.81309    0.60506    0.70554    1.000
    N4739    N        0.76354    0.68839    0.68776    1.000
    N4740    N        0.80305    0.64387    0.72437    1.000
    N4741    N        0.77502    0.60474    0.83625    1.000
    Si4742   Si       0.79580    0.52488    0.80403    1.000
    N4743    N        0.75846    0.54423    0.79407    1.000
    Si4744   Si       0.78926    0.64632    0.82983    1.000
    Si4745   Si       0.77540    0.64539    0.75846    1.000
    N4746    N        0.80623    0.64127    0.78877    1.000
    N4747    N        0.80542    0.65693    0.86878    1.000
    N4748    N        0.75832    0.67666    0.82659    1.000
    N4749    N        0.78159    0.72568    0.87365    1.000
    Si4750   Si       0.78759    0.65368    0.90772    1.000
    N4751    N        0.76643    0.52921    0.90189    1.000
    N4752    N        0.79564    0.56058    0.95604    1.000
    Si4753   Si       0.80584    0.52482    0.88251    1.000
    Si4754   Si       0.76918    0.52880    0.94532    1.000
    N4755    N        0.80976    0.62306    0.93058    1.000
    Si4756   Si       0.80882    0.72296    0.90843    1.000
    Si4757   Si       0.75953    0.75498    0.96526    1.000
    N4758    N        0.79729    0.68785    0.93124    1.000
    N4759    N        0.79521    0.65517    0.99176    1.000
    N4760    N        0.79870    0.75480    0.93666    1.000
    Si4761   Si       0.79058    0.69486    0.97413    1.000
    N4762    N        0.75282    0.71425    0.98259    1.000
    Si4763   Si       0.80288    0.57258    0.99690    1.000
    N4764    N        0.79563    0.81950    0.03819    1.000
    Si4765   Si       0.80193    0.77802    0.03490    1.000
    Si4766   Si       0.80434    0.79237    0.10008    1.000
    N4767    N        0.76261    0.80247    0.11431    1.000
    N4768    N        0.78868    0.76252    0.07222    1.000
    N4769    N        0.81270    0.87115    0.99952    1.000
    Si4770   Si       0.75776    0.84317    0.03555    1.000
    N4771    N        0.76831    0.88369    0.04770    1.000
    N4772    N        0.79204    0.92566    0.09372    1.000
    Si4773   Si       0.79281    0.90592    0.01884    1.000
    Si4774   Si       0.79556    0.96148    0.06860    1.000
    N4775    N        0.75837    0.98064    0.06008    1.000
    Si4776   Si       0.75617    0.90079    0.08612    1.000
    Si4777   Si       0.76756    0.76711    0.13785    1.000
    Si4778   Si       0.79652    0.84161    0.20851    1.000
    N4779    N        0.78645    0.87358    0.17982    1.000
    N4780    N        0.75965    0.81934    0.21060    1.000
    N4781    N        0.80164    0.76638    0.20648    1.000
    Si4782   Si       0.76033    0.77639    0.20924    1.000
    N4783    N        0.81042    0.77021    0.13915    1.000
    N4784    N        0.79371    0.99852    0.16629    1.000
    N4785    N        0.78483    0.94995    0.20773    1.000
    N4786    N        0.77486    0.85478    0.31452    1.000
    Si4787   Si       0.79231    0.84000    0.35041    1.000
    N4788    N        0.78722    0.79732    0.34690    1.000
    Si4789   Si       0.79922    0.87342    0.28271    1.000
    Si4790   Si       0.77858    0.90752    0.45930    1.000
    Si4791   Si       0.79808    0.97658    0.35549    1.000
    N4792    N        0.77692    0.90612    0.26612    1.000
    N4793    N        0.76571    0.98408    0.32980    1.000
    Si4794   Si       0.78481    0.94544    0.25258    1.000
    N4795    N        0.75776    0.98070    0.26320    1.000
    Si4796   Si       0.78542    0.76570    0.38455    1.000
    Si4797   Si       0.78351    0.83299    0.41725    1.000
    N4798    N        0.77905    0.86326    0.44994    1.000
    N4799    N        0.76652    0.85303    0.38441    1.000
    N4800    N        0.77469    0.79094    0.42033    1.000
    N4801    N        0.80704    0.81042    0.49284    1.000
    N4802    N        0.78818    0.95244    0.39077    1.000
    N4803    N        0.80294    0.98377    0.45313    1.000
    N4804    N        0.81007    0.84628    0.24979    1.000
    N4805    N        0.77330    0.84878    0.59888    1.000
    Si4806   Si       0.79444    0.81069    0.60120    1.000
    Si4807   Si       0.78208    0.81351    0.52810    1.000
    N4808    N        0.80884    0.80256    0.56133    1.000
    N4809    N        0.75455    0.84967    0.52671    1.000
    Si4810   Si       0.80100    0.88187    0.59209    1.000
    N4811    N        0.76982    0.78098    0.62125    1.000
    N4812    N        0.80408    0.97891    0.56423    1.000
    Si4813   Si       0.79346    0.95704    0.60065    1.000
    N4814    N        0.77719    0.91954    0.59200    1.000
    N4815    N        0.77882    0.91149    0.50344    1.000
    Si4816   Si       0.77590    0.00562    0.54150    1.000
    N4817    N        0.76374    0.98400    0.61895    1.000
    N4818    N        0.79642    0.77859    0.68828    1.000
    Si4819   Si       0.77550    0.78537    0.72612    1.000
    N4820    N        0.78311    0.87282    0.68811    1.000
    Si4821   Si       0.80592    0.77341    0.64702    1.000
    Si4822   Si       0.76394    0.90837    0.70269    1.000
    N4823    N        0.78877    0.92514    0.73315    1.000
    N4824    N        0.77597    0.99230    0.68078    1.000
    Si4825   Si       0.80653    0.00258    0.65060    1.000
    Si4826   Si       0.80101    0.83588    0.85640    1.000
    N4827    N        0.79772    0.80081    0.76133    1.000
    N4828    N        0.77027    0.86429    0.77954    1.000
    N4829    N        0.76077    0.84651    0.84412    1.000
    Si4830   Si       0.80752    0.84318    0.77455    1.000
    Si4831   Si       0.78258    0.76313    0.84921    1.000
    Si4832   Si       0.75539    0.88103    0.81965    1.000
    N4833    N        0.78965    0.95553    0.79658    1.000
    N4834    N        0.78898    0.98462    0.85120    1.000
    Si4835   Si       0.78543    0.96151    0.75465    1.000
    Si4836   Si       0.76119    0.95806    0.83003    1.000
    Si4837   Si       0.81192    0.98968    0.81384    1.000
    N4838    N        0.75781    0.91736    0.84467    1.000
    N4839    N        0.78805    0.79759    0.87755    1.000
    Si4840   Si       0.78557    0.85462    0.96952    1.000
    Si4841   Si       0.78400    0.79364    0.91961    1.000
    N4842    N        0.80528    0.82083    0.94715    1.000
    N4843    N        0.78106    0.88420    0.93766    1.000
    N4844    N        0.78544    0.77115    0.99457    1.000
    Si4845   Si       0.76101    0.91928    0.94932    1.000
    N4846    N        0.76241    0.91811    0.99252    1.000
    N4847    N        0.77051    0.95739    0.93033    1.000
    Si4848   Si       0.84626    0.07805    0.08282    1.000
    N4849    N        0.84709    0.05382    0.04620    1.000
    N4850    N        0.85341    0.04562    0.11137    1.000
    Si4851   Si       0.84135    0.06866    0.00520    1.000
    Si4852   Si       0.85416    0.01143    0.06186    1.000
    Si4853   Si       0.82391    0.01147    0.12264    1.000
    N4854    N        0.82951    0.16299    0.07427    1.000
    Si4855   Si       0.82847    0.19998    0.09892    1.000
    N4856    N        0.85467    0.15469    0.01325    1.000
    N4857    N        0.86391    0.22551    0.08678    1.000
    Si4858   Si       0.83254    0.19133    0.00950    1.000
    Si4859   Si       0.86542    0.14719    0.05436    1.000
    N4860    N        0.86690    0.22007    0.02039    1.000
    N4861    N        0.85083    0.09058    0.21785    1.000
    Si4862   Si       0.83725    0.05218    0.20466    1.000
    N4863    N        0.82925    0.02618    0.23881    1.000
    N4864    N        0.87124    0.03642    0.17994    1.000
    Si4865   Si       0.81895    0.16566    0.17533    1.000
    N4866    N        0.85789    0.15472    0.19137    1.000
    N4867    N        0.86424    0.22620    0.18876    1.000
    N4868    N        0.82163    0.18736    0.13920    1.000
    Si4869   Si       0.82884    0.22762    0.21476    1.000
    N4870    N        0.83027    0.08959    0.29350    1.000
    Si4871   Si       0.84130    0.10837    0.25588    1.000
    N4872    N        0.86573    0.05140    0.34234    1.000
    Si4873   Si       0.82790    0.05320    0.36595    1.000
    N4874    N        0.83376    0.13997    0.35372    1.000
    N4875    N        0.82863    0.23574    0.29938    1.000
    Si4876   Si       0.86308    0.21586    0.28215    1.000
    N4877    N        0.86188    0.24291    0.37273    1.000
    Si4878   Si       0.81856    0.24502    0.37395    1.000
    N4879    N        0.83305    0.07328    0.40617    1.000
    N4880    N        0.85314    0.03184    0.47600    1.000
    N4881    N        0.86758    0.10792    0.45700    1.000
    N4882    N        0.81939    0.25896    0.48546    1.000
    Si4883   Si       0.87080    0.08203    0.31017    1.000
    N4884    N        0.84080    0.21513    0.43393    1.000
    Si4885   Si       0.83333    0.13533    0.45848    1.000
    N4886    N        0.83746    0.17083    0.48238    1.000
    Si4887   Si       0.86671    0.19695    0.46664    1.000
    Si4888   Si       0.86149    0.14327    0.38466    1.000
    Si4889   Si       0.82704    0.25490    0.44313    1.000
    N4890    N        0.83390    0.15160    0.41857    1.000
    Si4891   Si       0.87296    0.08342    0.42081    1.000
    N4892    N        0.84906    0.20166    0.24386    1.000
    Si4893   Si       0.84321    0.03712    0.51768    1.000
    Si4894   Si       0.83825    0.10567    0.55571    1.000
    N4895    N        0.85792    0.07650    0.52940    1.000
    Si4896   Si       0.82660    0.06187    0.60754    1.000
    N4897    N        0.86201    0.03692    0.60461    1.000
    N4898    N        0.84112    0.15765    0.73242    1.000
    N4899    N        0.87366    0.12309    0.57814    1.000
    N4900    N        0.82093    0.13708    0.53428    1.000
    Si4901   Si       0.83316    0.17594    0.52475    1.000
    N4902    N        0.86576    0.25507    0.61178    1.000
    N4903    N        0.86976    0.18613    0.54475    1.000
    N4904    N        0.83733    0.02686    0.67289    1.000
    Si4905   Si       0.82966    0.12452    0.66373    1.000
    Si4906   Si       0.82796    0.05584    0.70299    1.000
    N4907    N        0.83186    0.09774    0.69801    1.000
    N4908    N        0.83901    0.09505    0.63233    1.000
    Si4909   Si       0.84788    0.11377    0.73563    1.000
    N4910    N        0.85097    0.04654    0.74081    1.000
    N4911    N        0.86988    0.14329    0.65174    1.000
    Si4912   Si       0.85599    0.25300    0.65547    1.000
    N4913    N        0.84760    0.20871    0.65586    1.000
    N4914    N        0.85605    0.22511    0.74255    1.000
    N4915    N        0.86586    0.00977    0.54129    1.000
    Si4916   Si       0.81701    0.24051    0.74685    1.000
    N4917    N        0.84940    0.07648    0.83509    1.000
    N4918    N        0.83526    0.10671    0.77565    1.000
    Si4919   Si       0.81422    0.03018    0.75610    1.000
    Si4920   Si       0.86776    0.08573    0.79597    1.000
    N4921    N        0.83381    0.14559    0.83387    1.000
    N4922    N        0.86356    0.24904    0.86399    1.000
    Si4923   Si       0.82764    0.22540    0.87037    1.000
    Si4924   Si       0.82542    0.17559    0.93491    1.000
    N4925    N        0.83325    0.18552    0.89064    1.000
    Si4926   Si       0.83816    0.04159    0.92884    1.000
    N4927    N        0.84706    0.03840    0.97266    1.000
    N4928    N        0.86754    0.04309    0.89703    1.000
    Si4929   Si       0.86409    0.13333    0.97725    1.000
    N4930    N        0.84098    0.20138    0.96691    1.000
    N4931    N        0.83017    0.13625    0.95001    1.000
    N4932    N        0.84876    0.32108    0.02760    1.000
    N4933    N        0.82432    0.28818    0.08519    1.000
    Si4934   Si       0.85199    0.36492    0.03262    1.000
    Si4935   Si       0.86281    0.26753    0.09493    1.000
    Si4936   Si       0.81539    0.31887    0.05529    1.000
    N4937    N        0.81740    0.36261    0.06366    1.000
    N4938    N        0.85605    0.47995    0.01868    1.000
    Si4939   Si       0.82413    0.45341    0.04359    1.000
    N4940    N        0.86173    0.43271    0.05821    1.000
    Si4941   Si       0.82362    0.50254    0.99896    1.000
    N4942    N        0.82914    0.31647    0.16999    1.000
    Si4943   Si       0.82798    0.35342    0.19054    1.000
    N4944    N        0.82986    0.35541    0.23351    1.000
    N4945    N        0.81356    0.26723    0.21253    1.000
    Si4946   Si       0.82355    0.41232    0.14222    1.000
    N4947    N        0.83391    0.48588    0.23452    1.000
    Si4948   Si       0.86235    0.38507    0.22953    1.000
    N4949    N        0.86283    0.40557    0.12868    1.000
    N4950    N        0.82105    0.44643    0.16951    1.000
    Si4951   Si       0.84787    0.46137    0.19988    1.000
    N4952    N        0.85679    0.42787    0.22638    1.000
    N4953    N        0.86961    0.36891    0.18863    1.000
    N4954    N        0.84410    0.35091    0.30503    1.000
    Si4955   Si       0.82920    0.27770    0.30816    1.000
    Si4956   Si       0.86708    0.32928    0.33643    1.000
    N4957    N        0.83953    0.32777    0.36962    1.000
    N4958    N        0.87060    0.29270    0.31189    1.000
    Si4959   Si       0.81479    0.34133    0.27427    1.000
    Si4960   Si       0.86332    0.38850    0.29879    1.000
    N4961    N        0.82969    0.41707    0.28521    1.000
    N4962    N        0.84626    0.45622    0.34702    1.000
    Si4963   Si       0.84371    0.45290    0.26447    1.000
    Si4964   Si       0.85649    0.42243    0.37059    1.000
    N4965    N        0.85925    0.28204    0.43267    1.000
    N4966    N        0.86807    0.36110    0.44615    1.000
    N4967    N        0.81331    0.48123    0.29139    1.000
    N4968    N        0.83966    0.45575    0.40860    1.000
    Si4969   Si       0.84395    0.45976    0.45160    1.000
    N4970    N        0.81530    0.40441    0.37472    1.000
    Si4971   Si       0.82728    0.48300    0.37686    1.000
    N4972    N        0.86235    0.49707    0.46143    1.000
    N4973    N        0.86255    0.42739    0.47063    1.000
    Si4974   Si       0.84011    0.38619    0.47016    1.000
    Si4975   Si       0.84237    0.28468    0.51272    1.000
    Si4976   Si       0.84485    0.27964    0.58227    1.000
    N4977    N        0.86216    0.31657    0.59719    1.000
    Si4978   Si       0.81627    0.35310    0.52484    1.000
    N4979    N        0.81738    0.31155    0.53711    1.000
    N4980    N        0.85264    0.37742    0.51174    1.000
    Si4981   Si       0.84225    0.39914    0.71094    1.000
    Si4982   Si       0.82512    0.41294    0.56647    1.000
    N4983    N        0.86775    0.40820    0.57254    1.000
    Si4984   Si       0.83444    0.32352    0.63085    1.000
    N4985    N        0.83432    0.29019    0.65871    1.000
    N4986    N        0.84499    0.36174    0.64672    1.000
    N4987    N        0.85140    0.30859    0.72326    1.000
    Si4988   Si       0.81826    0.29573    0.69839    1.000
    N4989    N        0.81797    0.37457    0.73548    1.000
    N4990    N        0.84376    0.49579    0.71823    1.000
    N4991    N        0.82104    0.41675    0.67884    1.000
    Si4992   Si       0.82598    0.46177    0.69787    1.000
    Si4993   Si       0.83811    0.40515    0.64141    1.000
    N4994    N        0.84631    0.43476    0.73395    1.000
    N4995    N        0.83602    0.47732    0.65414    1.000
    N4996    N        0.85670    0.25842    0.54523    1.000
    Si4997   Si       0.84380    0.30551    0.76486    1.000
    N4998    N        0.83382    0.33860    0.78890    1.000
    Si4999   Si       0.81860    0.37686    0.78087    1.000
    N5000    N        0.85980    0.37887    0.85711    1.000
    N5001    N        0.84272    0.40907    0.79664    1.000
    Si5002   Si       0.84766    0.49377    0.76120    1.000
    Si5003   Si       0.84452    0.41760    0.84178    1.000
    N5004    N        0.86755    0.45205    0.85611    1.000
    Si5005   Si       0.86997    0.42987    0.77128    1.000
    N5006    N        0.83588    0.31286    0.88585    1.000
    Si5007   Si       0.83333    0.35818    0.88467    1.000
    Si5008   Si       0.85024    0.30527    0.98641    1.000
    N5009    N        0.83752    0.36375    0.92757    1.000
    N5010    N        0.86840    0.26953    0.97203    1.000
    N5011    N        0.84438    0.38115    0.98963    1.000
    Si5012   Si       0.84102    0.46736    0.93405    1.000
    Si5013   Si       0.86548    0.49227    0.87273    1.000
    N5014    N        0.84344    0.50242    0.96001    1.000
    N5015    N        0.82980    0.49084    0.89773    1.000
    Si5016   Si       0.81483    0.39145    0.95728    1.000
    N5017    N        0.81608    0.43427    0.94856    1.000
    N5018    N        0.81085    0.31145    0.97292    1.000
    N5019    N        0.85861    0.53802    0.08184    1.000
    Si5020   Si       0.81984    0.52760    0.06434    1.000
    Si5021   Si       0.86361    0.55917    0.12056    1.000
    N5022    N        0.84807    0.69030    0.04352    1.000
    Si5023   Si       0.85453    0.72077    0.01426    1.000
    Si5024   Si       0.86262    0.69616    0.08615    1.000
    N5025    N        0.82150    0.68947    0.09873    1.000
    N5026    N        0.81928    0.54479    0.20198    1.000
    Si5027   Si       0.81992    0.58496    0.21533    1.000
    N5028    N        0.82725    0.57093    0.13704    1.000
    Si5029   Si       0.85430    0.52309    0.21588    1.000
    N5030    N        0.86211    0.59933    0.21097    1.000
    N5031    N        0.85508    0.70723    0.15208    1.000
    Si5032   Si       0.82384    0.74727    0.23829    1.000
    Si5033   Si       0.82401    0.67930    0.14144    1.000
    N5034    N        0.84236    0.63898    0.14302    1.000
    N5035    N        0.85021    0.72009    0.21926    1.000
    N5036    N        0.81625    0.53807    0.02029    1.000
    Si5037   Si       0.81144    0.61035    0.14997    1.000
    Si5038   Si       0.85233    0.54421    0.34564    1.000
    Si5039   Si       0.82687    0.58127    0.29310    1.000
    N5040    N        0.82297    0.54480    0.31383    1.000
    N5041    N        0.86812    0.58428    0.35191    1.000
    N5042    N        0.86947    0.58476    0.28396    1.000
    N5043    N        0.84929    0.74529    0.32269    1.000
    N5044    N        0.84821    0.68747    0.27919    1.000
    Si5045   Si       0.85581    0.74500    0.36724    1.000
    N5046    N        0.85716    0.56430    0.48073    1.000
    N5047    N        0.82942    0.59056    0.41691    1.000
    N5048    N        0.83740    0.52567    0.38328    1.000
    Si5049   Si       0.85727    0.59458    0.44908    1.000
    Si5050   Si       0.83427    0.52742    0.47409    1.000
    N5051    N        0.84123    0.63095    0.46943    1.000
    Si5052   Si       0.84903    0.66213    0.43760    1.000
    N5053    N        0.85175    0.70513    0.38161    1.000
    N5054    N        0.86772    0.64505    0.40131    1.000
    Si5055   Si       0.82749    0.53932    0.55504    1.000
    N5056    N        0.83532    0.60518    0.60518    1.000
    N5057    N        0.83625    0.51536    0.59046    1.000
    N5058    N        0.82336    0.51641    0.51608    1.000
    Si5059   Si       0.82784    0.63281    0.57148    1.000
    N5060    N        0.82702    0.70392    0.69341    1.000
    N5061    N        0.86796    0.55907    0.55781    1.000
    N5062    N        0.83823    0.70917    0.57889    1.000
    N5063    N        0.83789    0.68795    0.51077    1.000
    Si5064   Si       0.82103    0.71690    0.53949    1.000
    Si5065   Si       0.86073    0.73846    0.60101    1.000
    N5066    N        0.83163    0.75490    0.51849    1.000
    Si5067   Si       0.81555    0.69262    0.61248    1.000
    N5068    N        0.84353    0.60232    0.67121    1.000
    Si5069   Si       0.84898    0.56169    0.65331    1.000
    N5070    N        0.84623    0.59975    0.73392    1.000
    Si5071   Si       0.82816    0.63084    0.64059    1.000
    Si5072   Si       0.81418    0.64999    0.49838    1.000
    Si5073   Si       0.85449    0.71547    0.72612    1.000
    N5074    N        0.83414    0.73972    0.63769    1.000
    N5075    N        0.84412    0.67244    0.64058    1.000
    Si5076   Si       0.86095    0.71117    0.66115    1.000
    N5077    N        0.87323    0.62764    0.55984    1.000
    N5078    N        0.84881    0.61813    0.84655    1.000
    N5079    N        0.82362    0.55995    0.81641    1.000
    Si5080   Si       0.86476    0.54968    0.81063    1.000
    N5081    N        0.86609    0.53290    0.76980    1.000
    Si5082   Si       0.81567    0.58997    0.84786    1.000
    Si5083   Si       0.83923    0.63914    0.75613    1.000
    Si5084   Si       0.84210    0.72973    0.84074    1.000
    N5085    N        0.84925    0.68772    0.82822    1.000
    N5086    N        0.85321    0.68319    0.75220    1.000
    Si5087   Si       0.84769    0.65943    0.86097    1.000
    N5088    N        0.84707    0.74988    0.74962    1.000
    N5089    N        0.86212    0.57113    0.94180    1.000
    Si5090   Si       0.82157    0.58239    0.92595    1.000
    N5091    N        0.81877    0.56678    0.88543    1.000
    N5092    N        0.83351    0.60033    0.99462    1.000
    N5093    N        0.86875    0.63876    0.96172    1.000
    N5094    N        0.82721    0.71759    0.98021    1.000
    N5095    N        0.84475    0.72762    0.88465    1.000
    Si5096   Si       0.82521    0.63672    0.96936    1.000
    N5097    N        0.81302    0.75383    0.81980    1.000
    N5098    N        0.84545    0.80196    0.09019    1.000
    Si5099   Si       0.82899    0.84503    0.02986    1.000
    Si5100   Si       0.85509    0.84321    0.09755    1.000
    N5101    N        0.83316    0.86903    0.06668    1.000
    N5102    N        0.86755    0.82928    0.01653    1.000
    N5103    N        0.84088    0.76170    0.02406    1.000
    Si5104   Si       0.82544    0.89887    0.09668    1.000
    Si5105   Si       0.84955    0.94893    0.00903    1.000
    N5106    N        0.82400    0.99133    0.08326    1.000
    N5107    N        0.86134    0.98823    0.02394    1.000
    N5108    N        0.86409    0.91882    0.09939    1.000
    Si5109   Si       0.81676    0.96511    0.18096    1.000
    N5110    N        0.81395    0.93784    0.03359    1.000
    N5111    N        0.83613    0.86604    0.12731    1.000
    N5112    N        0.83177    0.82241    0.19060    1.000
    Si5113   Si       0.83047    0.78102    0.17701    1.000
    Si5114   Si       0.86955    0.84298    0.19714    1.000
    N5115    N        0.85146    0.98623    0.14199    1.000
    Si5116   Si       0.84744    0.98776    0.24553    1.000
    N5117    N        0.85368    0.97391    0.20461    1.000
    N5118    N        0.85975    0.88356    0.19138    1.000
    N5119    N        0.82601    0.92838    0.15711    1.000
    Si5120   Si       0.82561    0.88554    0.16438    1.000
    Si5121   Si       0.85967    0.94566    0.13333    1.000
    Si5122   Si       0.85415    0.85980    0.32419    1.000
    N5123    N        0.83269    0.85140    0.36086    1.000
    N5124    N        0.84533    0.77814    0.25925    1.000
    N5125    N        0.84785    0.82241    0.30242    1.000
    Si5126   Si       0.84437    0.82173    0.25883    1.000
    Si5127   Si       0.86066    0.77968    0.30036    1.000
    N5128    N        0.83297    0.89142    0.30118    1.000
    Si5129   Si       0.84299    0.93456    0.30278    1.000
    N5130    N        0.83412    0.95584    0.33911    1.000
    N5131    N        0.82659    0.95442    0.26721    1.000
    Si5132   Si       0.85642    0.97811    0.37004    1.000
    Si5133   Si       0.81895    0.77102    0.48088    1.000
    N5134    N        0.82896    0.76752    0.39341    1.000
    N5135    N        0.82762    0.83148    0.42835    1.000
    Si5136   Si       0.85369    0.85258    0.39918    1.000
    Si5137   Si       0.85037    0.79396    0.42048    1.000
    N5138    N        0.85277    0.76911    0.45526    1.000
    N5139    N        0.83870    0.87669    0.48877    1.000
    Si5140   Si       0.81460    0.84529    0.46803    1.000
    Si5141   Si       0.85477    0.89861    0.45477    1.000
    Si5142   Si       0.81728    0.95585    0.42297    1.000
    N5143    N        0.86017    0.96319    0.41143    1.000
    N5144    N        0.81666    0.91855    0.44325    1.000
    N5145    N        0.82337    0.00952    0.37096    1.000
    Si5146   Si       0.84558    0.78703    0.54361    1.000
    Si5147   Si       0.85988    0.85646    0.54955    1.000
    N5148    N        0.82343    0.87754    0.55475    1.000
    N5149    N        0.86883    0.81878    0.52641    1.000
    N5150    N        0.84177    0.90669    0.69445    1.000
    Si5151   Si       0.84560    0.97145    0.54875    1.000
    N5152    N        0.84386    0.93605    0.52490    1.000
    Si5153   Si       0.81790    0.90268    0.51818    1.000
    N5154    N        0.84927    0.84448    0.67944    1.000
    Si5155   Si       0.85722    0.84108    0.62913    1.000
    N5156    N        0.82838    0.87408    0.62663    1.000
    N5157    N        0.82702    0.80717    0.62824    1.000
    Si5158   Si       0.82113    0.87554    0.66924    1.000
    Si5159   Si       0.86678    0.95663    0.62622    1.000
    N5160    N        0.83635    0.85957    0.74611    1.000
    Si5161   Si       0.82763    0.90399    0.73528    1.000
    N5162    N        0.82564    0.96688    0.62974    1.000
    N5163    N        0.87285    0.76397    0.56919    1.000
    N5164    N        0.87247    0.95798    0.58221    1.000
    Si5165   Si       0.86963    0.84598    0.71865    1.000
    N5166    N        0.85961    0.80048    0.78460    1.000
    Si5167   Si       0.82484    0.77132    0.78180    1.000
    Si5168   Si       0.86308    0.83279    0.81240    1.000
    N5169    N        0.82167    0.84115    0.81734    1.000
    N5170    N        0.85348    0.92581    0.76237    1.000
    Si5171   Si       0.85555    0.96796    0.76805    1.000
    N5172    N        0.85418    0.98123    0.80988    1.000
    N5173    N        0.82169    0.98749    0.74869    1.000
    Si5174   Si       0.84836    0.82610    0.95025    1.000
    N5175    N        0.85081    0.86939    0.94378    1.000
    N5176    N        0.82628    0.85569    0.88450    1.000
    N5177    N        0.86160    0.78428    0.96517    1.000
    Si5178   Si       0.87025    0.84872    0.88529    1.000
    Si5179   Si       0.82351    0.76206    0.97266    1.000
    Si5180   Si       0.81917    0.88399    0.91669    1.000
    Si5181   Si       0.87124    0.92479    0.89541    1.000
    Si5182   Si       0.83324    0.00349    0.99106    1.000
    N5183    N        0.82808    0.92708    0.90885    1.000
    Si5184   Si       0.81491    0.96319    0.93156    1.000
    N5185    N        0.81616    0.00640    0.91833    1.000
    N5186    N        0.84083    0.96721    0.96777    1.000
    N5187    N        0.86910    0.96491    0.87601    1.000
    N5188    N        0.91389    0.04376    0.02062    1.000
    Si5189   Si       0.91447    0.08539    0.01118    1.000
    Si5190   Si       0.90283    0.10710    0.11490    1.000
    N5191    N        0.91628    0.06528    0.10727    1.000
    Si5192   Si       0.92239    0.02367    0.09965    1.000
    N5193    N        0.87376    0.11276    0.08038    1.000
    N5194    N        0.92793    0.23310    0.06578    1.000
    Si5195   Si       0.89127    0.21117    0.05598    1.000
    N5196    N        0.90221    0.16955    0.05686    1.000
    N5197    N        0.91269    0.11193    0.21737    1.000
    N5198    N        0.88483    0.09460    0.15394    1.000
    Si5199   Si       0.88611    0.05129    0.14083    1.000
    Si5200   Si       0.87706    0.11390    0.19078    1.000
    N5201    N        0.91295    0.00904    0.14120    1.000
    N5202    N        0.92929    0.22834    0.16416    1.000
    N5203    N        0.91665    0.19226    0.22064    1.000
    Si5204   Si       0.87512    0.18925    0.21165    1.000
    Si5205   Si       0.89308    0.25193    0.17054    1.000
    N5206    N        0.89735    0.11213    0.32929    1.000
    Si5207   Si       0.90521    0.02950    0.34638    1.000
    Si5208   Si       0.91072    0.02477    0.27153    1.000
    N5209    N        0.89029    0.06305    0.27368    1.000
    Si5210   Si       0.92128    0.10228    0.36336    1.000
    Si5211   Si       0.90831    0.09950    0.25775    1.000
    N5212    N        0.87873    0.12876    0.27021    1.000
    N5213    N        0.92837    0.05848    0.36890    1.000
    N5214    N        0.88472    0.17832    0.38343    1.000
    N5215    N        0.93033    0.02354    0.31162    1.000
    N5216    N        0.89592    0.24171    0.27357    1.000
    Si5217   Si       0.88334    0.20778    0.35256    1.000
    Si5218   Si       0.89505    0.14913    0.30413    1.000
    N5219    N        0.87644    0.18827    0.31389    1.000
    Si5220   Si       0.92709    0.22349    0.24957    1.000
    N5221    N        0.92591    0.21581    0.34557    1.000
    N5222    N        0.89123    0.11200    0.39346    1.000
    Si5223   Si       0.89434    0.03133    0.46735    1.000
    N5224    N        0.89820    0.04796    0.42557    1.000
    Si5225   Si       0.90364    0.12974    0.47335    1.000
    N5226    N        0.91729    0.06056    0.49379    1.000
    Si5227   Si       0.92525    0.23451    0.46631    1.000
    N5228    N        0.89147    0.22449    0.49267    1.000
    N5229    N        0.91158    0.22818    0.42568    1.000
    N5230    N        0.89749    0.16902    0.45653    1.000
    Si5231   Si       0.90903    0.18465    0.41780    1.000
    Si5232   Si       0.90024    0.08333    0.52543    1.000
    N5233    N        0.91503    0.06463    0.56361    1.000
    Si5234   Si       0.89226    0.02758    0.57246    1.000
    N5235    N        0.90314    0.12723    0.51687    1.000
    Si5236   Si       0.87976    0.11513    0.62227    1.000
    Si5237   Si       0.90532    0.23925    0.60612    1.000
    Si5238   Si       0.89377    0.15161    0.55154    1.000
    Si5239   Si       0.88653    0.22685    0.53742    1.000
    N5240    N        0.91881    0.24120    0.56381    1.000
    N5241    N        0.92950    0.16580    0.56780    1.000
    N5242    N        0.92239    0.10542    0.62227    1.000
    N5243    N        0.89420    0.06358    0.67174    1.000
    Si5244   Si       0.91135    0.08156    0.70727    1.000
    N5245    N        0.92224    0.04632    0.72895    1.000
    N5246    N        0.89081    0.10706    0.73769    1.000
    Si5247   Si       0.87581    0.03222    0.64904    1.000
    Si5248   Si       0.87424    0.18529    0.73006    1.000
    N5249    N        0.90349    0.19896    0.62066    1.000
    Si5250   Si       0.88262    0.18317    0.65592    1.000
    Si5251   Si       0.91951    0.23216    0.69944    1.000
    N5252    N        0.89889    0.19169    0.69559    1.000
    N5253    N        0.92308    0.23754    0.74585    1.000
    N5254    N        0.89390    0.04926    0.79169    1.000
    N5255    N        0.89559    0.11849    0.80655    1.000
    N5256    N        0.92131    0.06811    0.85255    1.000
    Si5257   Si       0.89091    0.03123    0.75337    1.000
    Si5258   Si       0.87913    0.07628    0.86769    1.000
    Si5259   Si       0.91403    0.13148    0.76953    1.000
    N5260    N        0.90028    0.17101    0.75982    1.000
    Si5261   Si       0.89346    0.22176    0.84482    1.000
    N5262    N        0.90139    0.17847    0.84780    1.000
    N5263    N        0.88979    0.22449    0.80149    1.000
    Si5264   Si       0.88513    0.24778    0.76429    1.000
    Si5265   Si       0.87855    0.14155    0.84043    1.000
    Si5266   Si       0.92148    0.20422    0.77817    1.000
    N5267    N        0.88321    0.11913    0.87968    1.000
    N5268    N        0.93228    0.24052    0.85335    1.000
    N5269    N        0.89489    0.14693    0.95070    1.000
    Si5270   Si       0.87431    0.22677    0.97841    1.000
    Si5271   Si       0.92763    0.17543    0.95552    1.000
    N5272    N        0.91446    0.21435    0.96756    1.000
    Si5273   Si       0.90926    0.13675    0.90966    1.000
    N5274    N        0.87472    0.09395    0.99373    1.000
    N5275    N        0.89567    0.29287    0.07896    1.000
    Si5276   Si       0.89869    0.33704    0.08717    1.000
    N5277    N        0.88407    0.36947    0.06143    1.000
    N5278    N        0.90666    0.47863    0.08068    1.000
    Si5279   Si       0.89003    0.46447    0.04329    1.000
    N5280    N        0.91566    0.46065    0.00791    1.000
    Si5281   Si       0.88039    0.40592    0.08724    1.000
    N5282    N        0.92115    0.41629    0.10025    1.000
    N5283    N        0.88462    0.33798    0.12877    1.000
    N5284    N        0.89803    0.29084    0.18820    1.000
    Si5285   Si       0.88919    0.37656    0.15032    1.000
    Si5286   Si       0.92757    0.29901    0.21896    1.000
    N5287    N        0.92835    0.46996    0.15068    1.000
    Si5288   Si       0.90716    0.50507    0.16606    1.000
    N5289    N        0.87107    0.49497    0.18609    1.000
    N5290    N        0.87116    0.26910    0.13709    1.000
    Si5291   Si       0.86978    0.30884    0.15722    1.000
    N5292    N        0.90391    0.34565    0.35444    1.000
    Si5293   Si       0.90449    0.28350    0.28706    1.000
    N5294    N        0.91000    0.31360    0.25525    1.000
    Si5295   Si       0.92157    0.35523    0.26415    1.000
    N5296    N        0.88632    0.37807    0.26436    1.000
    Si5297   Si       0.91237    0.38999    0.35975    1.000
    N5298    N        0.88145    0.45964    0.28391    1.000
    Si5299   Si       0.88012    0.47214    0.32640    1.000
    N5300    N        0.92133    0.46146    0.33425    1.000
    N5301    N        0.88004    0.40374    0.33399    1.000
    Si5302   Si       0.92487    0.45846    0.29061    1.000
    N5303    N        0.91859    0.28823    0.39958    1.000
    N5304    N        0.87494    0.30776    0.49659    1.000
    N5305    N        0.92258    0.46878    0.46834    1.000
    Si5306   Si       0.93143    0.32613    0.38135    1.000
    Si5307   Si       0.90344    0.50722    0.46747    1.000
    N5308    N        0.89019    0.40807    0.39369    1.000
    Si5309   Si       0.90029    0.38280    0.42690    1.000
    Si5310   Si       0.90527    0.42977    0.47977    1.000
    Si5311   Si       0.86585    0.31893    0.45475    1.000
    Si5312   Si       0.88415    0.26003    0.40597    1.000
    N5313    N        0.90111    0.35040    0.54994    1.000
    Si5314   Si       0.89817    0.33957    0.59120    1.000
    Si5315   Si       0.90927    0.32552    0.51536    1.000
    N5316    N        0.90465    0.37172    0.61909    1.000
    Si5317   Si       0.88437    0.38842    0.53775    1.000
    Si5318   Si       0.89797    0.41255    0.60247    1.000
    N5319    N        0.91254    0.41768    0.52142    1.000
    N5320    N        0.89152    0.48506    0.60329    1.000
    Si5321   Si       0.88907    0.36504    0.65995    1.000
    N5322    N        0.90264    0.32508    0.66770    1.000
    Si5323   Si       0.89088    0.30085    0.70298    1.000
    Si5324   Si       0.87727    0.46885    0.64163    1.000
    N5325    N        0.87431    0.42730    0.63519    1.000
    N5326    N        0.88089    0.38903    0.69541    1.000
    Si5327   Si       0.91694    0.40321    0.71691    1.000
    N5328    N        0.90328    0.48020    0.67642    1.000
    N5329    N        0.88814    0.25892    0.68622    1.000
    Si5330   Si       0.90851    0.30725    0.80493    1.000
    Si5331   Si       0.90016    0.36212    0.84237    1.000
    N5332    N        0.89233    0.31374    0.84469    1.000
    N5333    N        0.91623    0.34945    0.80083    1.000
    N5334    N        0.88050    0.28826    0.77797    1.000
    Si5335   Si       0.90819    0.43825    0.85297    1.000
    Si5336   Si       0.90233    0.49441    0.81116    1.000
    N5337    N        0.91218    0.40530    0.82676    1.000
    N5338    N        0.90324    0.40707    0.75730    1.000
    Si5339   Si       0.92625    0.38979    0.78881    1.000
    N5340    N        0.87509    0.47003    0.78544    1.000
    N5341    N        0.90382    0.28183    0.90800    1.000
    Si5342   Si       0.90034    0.29067    0.95029    1.000
    N5343    N        0.88204    0.32842    0.96477    1.000
    Si5344   Si       0.87390    0.28992    0.87614    1.000
    N5345    N        0.88171    0.45603    0.94564    1.000
    N5346    N        0.92480    0.42298    0.88986    1.000
    Si5347   Si       0.88529    0.48092    0.98235    1.000
    N5348    N        0.90744    0.39134    0.94648    1.000
    Si5349   Si       0.91456    0.43065    0.93066    1.000
    N5350    N        0.92845    0.47262    0.83914    1.000
    Si5351   Si       0.87304    0.36768    0.95695    1.000
    Si5352   Si       0.89980    0.52185    0.09026    1.000
    N5353    N        0.88539    0.59642    0.10866    1.000
    Si5354   Si       0.92264    0.58751    0.08838    1.000
    N5355    N        0.92398    0.62112    0.05987    1.000
    Si5356   Si       0.87629    0.72681    0.18336    1.000
    N5357    N        0.92885    0.54747    0.07112    1.000
    Si5358   Si       0.91261    0.73173    0.04791    1.000
    N5359    N        0.89009    0.66737    0.10062    1.000
    N5360    N        0.89508    0.73601    0.00754    1.000
    N5361    N        0.88100    0.73414    0.07900    1.000
    Si5362   Si       0.92400    0.66163    0.07458    1.000
    N5363    N        0.92228    0.68798    0.03976    1.000
    N5364    N        0.88906    0.54011    0.23637    1.000
    N5365    N        0.92219    0.60545    0.23322    1.000
    N5366    N        0.89705    0.53218    0.13269    1.000
    Si5367   Si       0.89454    0.62754    0.20125    1.000
    Si5368   Si       0.92663    0.52070    0.24211    1.000
    N5369    N        0.91039    0.63152    0.16210    1.000
    Si5370   Si       0.88340    0.63393    0.12840    1.000
    N5371    N        0.88986    0.65883    0.23100    1.000
    N5372    N        0.91068    0.71491    0.20485    1.000
    Si5373   Si       0.88093    0.70037    0.24215    1.000
    Si5374   Si       0.88493    0.58275    0.24409    1.000
    N5375    N        0.90640    0.58260    0.99760    1.000
    Si5376   Si       0.89647    0.59357    0.31841    1.000
    N5377    N        0.91846    0.61987    0.36227    1.000
    N5378    N        0.88188    0.51561    0.33126    1.000
    Si5379   Si       0.92604    0.52228    0.32353    1.000
    N5380    N        0.91815    0.62919    0.29639    1.000
    Si5381   Si       0.91748    0.69538    0.43555    1.000
    N5382    N        0.93139    0.56758    0.32439    1.000
    N5383    N        0.90222    0.72211    0.27764    1.000
    N5384    N        0.89452    0.68171    0.33338    1.000
    Si5385   Si       0.92358    0.64313    0.25660    1.000
    Si5386   Si       0.92620    0.65068    0.33252    1.000
    Si5387   Si       0.87202    0.71093    0.30780    1.000
    N5388    N        0.89419    0.59066    0.42698    1.000
    Si5389   Si       0.88344    0.60743    0.38713    1.000
    N5390    N        0.92289    0.52513    0.43368    1.000
    N5391    N        0.87833    0.68747    0.45496    1.000
    Si5392   Si       0.88364    0.67892    0.37571    1.000
    N5393    N        0.91777    0.73802    0.43859    1.000
    N5394    N        0.92219    0.68673    0.39410    1.000
    N5395    N        0.89521    0.76074    0.37380    1.000
    Si5396   Si       0.92835    0.75740    0.39817    1.000
    Si5397   Si       0.88041    0.69066    0.49884    1.000
    N5398    N        0.91057    0.59361    0.51799    1.000
    Si5399   Si       0.88289    0.56000    0.51518    1.000
    Si5400   Si       0.88190    0.52694    0.59202    1.000
    N5401    N        0.90807    0.52544    0.50653    1.000
    N5402    N        0.90553    0.61589    0.61416    1.000
    N5403    N        0.92419    0.52914    0.57635    1.000
    Si5404   Si       0.90976    0.63118    0.54080    1.000
    Si5405   Si       0.87532    0.59317    0.58904    1.000
    N5406    N        0.88047    0.55965    0.62238    1.000
    N5407    N        0.91170    0.66347    0.51165    1.000
    N5408    N        0.89666    0.73170    0.50510    1.000
    Si5409   Si       0.90504    0.75498    0.54018    1.000
    N5410    N        0.93073    0.73054    0.56466    1.000
    Si5411   Si       0.88102    0.50775    0.70097    1.000
    Si5412   Si       0.91277    0.58390    0.64193    1.000
    N5413    N        0.90911    0.59973    0.68219    1.000
    N5414    N        0.91218    0.58009    0.74213    1.000
    Si5415   Si       0.87726    0.58421    0.70884    1.000
    N5416    N        0.89130    0.71947    0.62664    1.000
    N5417    N        0.88769    0.71351    0.69757    1.000
    Si5418   Si       0.92960    0.72125    0.69464    1.000
    N5419    N        0.86886    0.54595    0.68811    1.000
    N5420    N        0.91610    0.50765    0.72983    1.000
    N5421    N        0.89460    0.57872    0.80869    1.000
    Si5422   Si       0.88964    0.60564    0.84053    1.000
    Si5423   Si       0.90895    0.60470    0.77832    1.000
    Si5424   Si       0.90786    0.53900    0.75694    1.000
    N5425    N        0.87831    0.51984    0.84051    1.000
    Si5426   Si       0.90655    0.53989    0.87085    1.000
    Si5427   Si       0.89194    0.66340    0.93676    1.000
    N5428    N        0.87898    0.63520    0.78085    1.000
    N5429    N        0.91562    0.63963    0.85060    1.000
    N5430    N        0.90964    0.69826    0.80686    1.000
    Si5431   Si       0.92016    0.74038    0.81307    1.000
    N5432    N        0.87879    0.75142    0.83245    1.000
    Si5433   Si       0.92588    0.68168    0.84394    1.000
    N5434    N        0.91429    0.75477    0.77235    1.000
    Si5435   Si       0.87490    0.67850    0.79123    1.000
    N5436    N        0.90508    0.58174    0.87481    1.000
    N5437    N        0.90339    0.51876    0.96880    1.000
    N5438    N        0.88942    0.51663    0.90171    1.000
    Si5439   Si       0.87353    0.59714    0.97581    1.000
    N5440    N        0.92079    0.71098    0.87516    1.000
    N5441    N        0.89881    0.70609    0.94098    1.000
    N5442    N        0.92530    0.63647    0.92479    1.000
    Si5443   Si       0.91891    0.73048    0.97080    1.000
    Si5444   Si       0.88465    0.71562    0.89962    1.000
    N5445    N        0.87196    0.67043    0.89804    1.000
    N5446    N        0.89758    0.76164    0.89922    1.000
    Si5447   Si       0.92745    0.61780    0.88552    1.000
    N5448    N        0.93004    0.52080    0.79217    1.000
    Si5449   Si       0.87185    0.52850    0.93994    1.000
    N5450    N        0.89421    0.85414    0.08338    1.000
    Si5451   Si       0.90444    0.83246    0.04134    1.000
    N5452    N        0.90140    0.78912    0.04929    1.000
    Si5453   Si       0.88215    0.77769    0.08655    1.000
    N5454    N        0.91355    0.78144    0.11587    1.000
    Si5455   Si       0.87632    0.78381    0.01110    1.000
    N5456    N        0.91997    0.91314    0.05062    1.000
    Si5457   Si       0.91876    0.92091    0.00841    1.000
    Si5458   Si       0.89926    0.89676    0.08610    1.000
    Si5459   Si       0.90626    0.99871    0.02957    1.000
    N5460    N        0.89696    0.00287    0.07281    1.000
    N5461    N        0.88171    0.83342    0.23723    1.000
    N5462    N        0.90114    0.82992    0.16909    1.000
    Si5463   Si       0.90845    0.78843    0.15984    1.000
    N5464    N        0.87241    0.76914    0.17533    1.000
    Si5465   Si       0.92310    0.82291    0.24480    1.000
    N5466    N        0.89243    0.94136    0.16121    1.000
    N5467    N        0.89921    0.92668    0.23398    1.000
    Si5468   Si       0.88499    0.99052    0.17516    1.000
    N5469    N        0.92464    0.98786    0.19864    1.000
    Si5470   Si       0.89196    0.91396    0.19514    1.000
    N5471    N        0.87175    0.91241    0.00348    1.000
    N5472    N        0.92996    0.89529    0.17886    1.000
    N5473    N        0.93193    0.78007    0.24182    1.000
    N5474    N        0.90273    0.78618    0.30213    1.000
    Si5475   Si       0.91676    0.82523    0.31529    1.000
    N5476    N        0.89717    0.86430    0.32505    1.000
    Si5477   Si       0.91419    0.90431    0.32207    1.000
    N5478    N        0.88708    0.92976    0.30118    1.000
    N5479    N        0.88653    0.99039    0.26556    1.000
    Si5480   Si       0.90560    0.95014    0.26785    1.000
    N5481    N        0.91632    0.92327    0.36251    1.000
    N5482    N        0.89584    0.98949    0.35953    1.000
    N5483    N        0.91341    0.79577    0.47628    1.000
    Si5484   Si       0.92366    0.82518    0.39262    1.000
    N5485    N        0.88332    0.81967    0.40434    1.000
    N5486    N        0.91008    0.99057    0.46601    1.000
    N5487    N        0.88359    0.92788    0.46919    1.000
    Si5488   Si       0.89366    0.95841    0.43937    1.000
    N5489    N        0.92774    0.93776    0.41865    1.000
    Si5490   Si       0.92953    0.96277    0.37378    1.000
    N5491    N        0.87139    0.88801    0.41566    1.000
    Si5492   Si       0.91003    0.90047    0.39798    1.000
    Si5493   Si       0.89393    0.75849    0.46821    1.000
    Si5494   Si       0.92750    0.75832    0.28002    1.000
    Si5495   Si       0.91365    0.83073    0.60101    1.000
    Si5496   Si       0.91231    0.81819    0.51373    1.000
    N5497    N        0.92815    0.79154    0.61204    1.000
    Si5498   Si       0.88362    0.91025    0.68341    1.000
    N5499    N        0.87342    0.83974    0.58761    1.000
    N5500    N        0.89116    0.88646    0.53702    1.000
    Si5501   Si       0.91355    0.95490    0.56799    1.000
    N5502    N        0.91423    0.95031    0.52452    1.000
    Si5503   Si       0.88320    0.92164    0.51161    1.000
    N5504    N        0.92448    0.99689    0.57170    1.000
    Si5505   Si       0.92153    0.97222    0.66560    1.000
    N5506    N        0.89265    0.80777    0.72387    1.000
    N5507    N        0.90134    0.84281    0.64069    1.000
    N5508    N        0.90290    0.87603    0.70583    1.000
    Si5509   Si       0.92666    0.85747    0.67287    1.000
    N5510    N        0.88832    0.92018    0.64230    1.000
    N5511    N        0.88906    0.98926    0.64390    1.000
    N5512    N        0.90463    0.94551    0.69883    1.000
    Si5513   Si       0.91699    0.95734    0.73790    1.000
    N5514    N        0.92979    0.79165    0.54379    1.000
    Si5515   Si       0.93123    0.91611    0.62793    1.000
    N5516    N        0.88722    0.86553    0.79776    1.000
    Si5517   Si       0.89246    0.78176    0.86109    1.000
    Si5518   Si       0.88210    0.77801    0.75556    1.000
    Si5519   Si       0.92963    0.85912    0.79608    1.000
    N5520    N        0.87672    0.82054    0.85263    1.000
    Si5521   Si       0.93065    0.87760    0.86706    1.000
    N5522    N        0.90189    0.93658    0.81601    1.000
    Si5523   Si       0.88670    0.91006    0.78522    1.000
    Si5524   Si       0.88757    0.97235    0.83608    1.000
    N5525    N        0.91842    0.91710    0.75758    1.000
    N5526    N        0.89232    0.98745    0.75480    1.000
    N5527    N        0.91756    0.99868    0.85753    1.000
    Si5528   Si       0.89633    0.78622    0.93526    1.000
    N5529    N        0.88029    0.82305    0.91832    1.000
    N5530    N        0.92836    0.77258    0.96044    1.000
    N5531    N        0.88811    0.88667    0.87708    1.000
    Si5532   Si       0.88506    0.00283    0.89009    1.000
    N5533    N        0.91112    0.96427    0.99436    1.000
    N5534    N        0.92037    0.89269    0.97437    1.000
    Si5535   Si       0.88694    0.96631    0.95747    1.000
    Si5536   Si       0.87846    0.89498    0.96465    1.000
    N5537    N        0.90329    0.99372    0.92832    1.000
    N5538    N        0.88586    0.92814    0.93532    1.000
    N5539    N        0.93463    0.77288    0.84983    1.000
    Si5540   Si       0.98042    0.09541    0.04244    1.000
    N5541    N        0.93946    0.10945    0.04130    1.000
    Si5542   Si       0.95544    0.03823    0.00738    1.000
    N5543    N        0.96468    0.01385    0.09526    1.000
    N5544    N        0.98934    0.05534    0.02954    1.000
    N5545    N        0.93622    0.13367    0.10973    1.000
    Si5546   Si       0.96813    0.21830    0.07307    1.000
    N5547    N        0.97208    0.17586    0.06724    1.000
    Si5548   Si       0.93986    0.14643    0.06829    1.000
    N5549    N        0.97886    0.21929    0.11649    1.000
    N5550    N        0.97352    0.08435    0.21046    1.000
    Si5551   Si       0.95465    0.12524    0.20987    1.000
    N5552    N        0.97721    0.02844    0.16407    1.000
    N5553    N        0.97847    0.14302    0.24239    1.000
    Si5554   Si       0.98316    0.24831    0.21003    1.000
    Si5555   Si       0.95973    0.25039    0.13789    1.000
    Si5556   Si       0.94325    0.19391    0.18542    1.000
    N5557    N        0.98139    0.20595    0.20456    1.000
    Si5558   Si       0.96892    0.13554    0.13811    1.000
    N5559    N        0.95423    0.15325    0.17548    1.000
    N5560    N        0.98451    0.09440    0.14539    1.000
    N5561    N        0.95057    0.09217    0.27303    1.000
    Si5562   Si       0.97198    0.06200    0.24744    1.000
    Si5563   Si       0.96837    0.13038    0.28341    1.000
    N5564    N        0.98142    0.18398    0.34466    1.000
    N5565    N        0.95932    0.21701    0.27856    1.000
    Si5566   Si       0.94924    0.19442    0.31460    1.000
    N5567    N        0.93793    0.15577    0.30011    1.000
    N5568    N        0.96069    0.11830    0.37548    1.000
    Si5569   Si       0.95370    0.07464    0.47280    1.000
    N5570    N        0.96718    0.05074    0.43509    1.000
    N5571    N        0.94009    0.11225    0.45483    1.000
    Si5572   Si       0.93585    0.03793    0.40660    1.000
    Si5573   Si       0.95909    0.13162    0.41991    1.000
    N5574    N        0.94855    0.17316    0.40833    1.000
    N5575    N        0.97373    0.23787    0.39806    1.000
    N5576    N        0.96035    0.20808    0.47553    1.000
    Si5577   Si       0.95817    0.20367    0.37710    1.000
    N5578    N        0.94525    0.02769    0.24758    1.000
    Si5579   Si       0.94155    0.07752    0.59508    1.000
    N5580    N        0.97802    0.09358    0.57526    1.000
    N5581    N        0.98530    0.08366    0.50380    1.000
    Si5582   Si       0.96921    0.16897    0.55113    1.000
    N5583    N        0.96518    0.21670    0.60588    1.000
    Si5584   Si       0.96507    0.24288    0.56637    1.000
    Si5585   Si       0.94024    0.17686    0.60858    1.000
    N5586    N        0.98071    0.21127    0.54136    1.000
    N5587    N        0.98388    0.15577    0.51086    1.000
    N5588    N        0.98380    0.15999    0.59157    1.000
    N5589    N        0.95262    0.04876    0.62518    1.000
    Si5590   Si       0.97320    0.02330    0.65347    1.000
    Si5591   Si       0.94962    0.11736    0.65451    1.000
    N5592    N        0.94570    0.10807    0.69605    1.000
    Si5593   Si       0.97268    0.12484    0.72796    1.000
    Si5594   Si       0.95106    0.01436    0.72344    1.000
    N5595    N        0.98353    0.03337    0.74620    1.000
    N5596    N        0.98777    0.10695    0.64119    1.000
    Si5597   Si       0.96428    0.24300    0.64200    1.000
    N5598    N        0.94812    0.15936    0.64805    1.000
    Si5599   Si       0.97662    0.18254    0.67622    1.000
    N5600    N        0.95735    0.22201    0.67928    1.000
    N5601    N        0.98832    0.16208    0.71092    1.000
    N5602    N        0.96267    0.06980    0.80262    1.000
    Si5603   Si       0.97211    0.11239    0.80677    1.000
    N5604    N        0.95639    0.12843    0.76805    1.000
    N5605    N        0.95187    0.12893    0.84131    1.000
    Si5606   Si       0.94893    0.09478    0.87023    1.000
    Si5607   Si       0.98543    0.03332    0.78915    1.000
    Si5608   Si       0.96988    0.19996    0.90477    1.000
    N5609    N        0.96196    0.15816    0.97333    1.000
    N5610    N        0.95326    0.19151    0.80297    1.000
    Si5611   Si       0.94500    0.17205    0.84210    1.000
    N5612    N        0.97946    0.19002    0.86353    1.000
    N5613    N        0.93401    0.17547    0.91189    1.000
    N5614    N        0.93981    0.10465    0.91114    1.000
    N5615    N        0.94157    0.08393    0.97796    1.000
    N5616    N        0.95644    0.04042    0.91062    1.000
    Si5617   Si       0.95685    0.07356    0.93854    1.000
    Si5618   Si       0.97183    0.11676    0.97824    1.000
    N5619    N        0.95341    0.01459    0.97224    1.000
    Si5620   Si       0.94945    0.24009    0.96013    1.000
    N5621    N        0.95800    0.23936    0.91750    1.000
    N5622    N        0.98180    0.22540    0.98491    1.000
    Si5623   Si       0.92918    0.04592    0.81778    1.000
    N5624    N        0.95443    0.01116    0.80648    1.000
    N5625    N        0.94163    0.34894    0.08744    1.000
    N5626    N        0.95968    0.27922    0.10491    1.000
    Si5627   Si       0.97182    0.33509    0.05662    1.000
    N5628    N        0.94893    0.30253    0.03863    1.000
    Si5629   Si       0.93416    0.27661    0.06894    1.000
    N5630    N        0.94515    0.25686    0.22793    1.000
    Si5631   Si       0.94798    0.38417    0.11361    1.000
    N5632    N        0.97663    0.46667    0.10132    1.000
    Si5633   Si       0.98563    0.39952    0.01802    1.000
    Si5634   Si       0.95243    0.47242    0.18641    1.000
    Si5635   Si       0.95741    0.36383    0.19063    1.000
    N5636    N        0.94297    0.37494    0.23017    1.000
    N5637    N        0.95697    0.32049    0.19505    1.000
    N5638    N        0.93242    0.37760    0.15570    1.000
    N5639    N        0.98641    0.26730    0.16994    1.000
    N5640    N        0.94146    0.44289    0.21685    1.000
    Si5641   Si       0.95457    0.41249    0.24529    1.000
    N5642    N        0.98642    0.42052    0.05388    1.000
    Si5643   Si       0.93142    0.45739    0.10926    1.000
    N5644    N        0.95052    0.35624    0.29772    1.000
    N5645    N        0.96752    0.32094    0.35739    1.000
    Si5646   Si       0.96755    0.31978    0.31370    1.000
    N5647    N        0.94429    0.28536    0.30534    1.000
    Si5648   Si       0.96349    0.39360    0.31442    1.000
    N5649    N        0.95079    0.40690    0.35359    1.000
    N5650    N        0.94594    0.42110    0.28664    1.000
    Si5651   Si       0.95570    0.45439    0.36020    1.000
    Si5652   Si       0.95099    0.44752    0.44512    1.000
    Si5653   Si       0.95168    0.26957    0.42029    1.000
    N5654    N        0.94497    0.27210    0.46291    1.000
    Si5655   Si       0.95753    0.30191    0.49052    1.000
    Si5656   Si       0.95071    0.36431    0.44958    1.000
    N5657    N        0.93385    0.33873    0.48033    1.000
    N5658    N        0.93118    0.40619    0.45114    1.000
    N5659    N        0.98736    0.45599    0.46852    1.000
    Si5660   Si       0.94988    0.50666    0.40383    1.000
    N5661    N        0.94849    0.46145    0.40484    1.000
    N5662    N        0.93209    0.35567    0.41311    1.000
    N5663    N        0.93075    0.50231    0.28321    1.000
    Si5664   Si       0.96549    0.31361    0.56510    1.000
    N5665    N        0.94108    0.29982    0.53021    1.000
    N5666    N        0.93788    0.32055    0.59918    1.000
    N5667    N        0.98989    0.27785    0.57165    1.000
    Si5668   Si       0.94802    0.43290    0.54300    1.000
    Si5669   Si       0.97697    0.42855    0.60810    1.000
    N5670    N        0.94592    0.47748    0.54514    1.000
    N5671    N        0.93491    0.43136    0.58798    1.000
    N5672    N        0.98436    0.41301    0.52748    1.000
    N5673    N        0.95764    0.49341    0.62012    1.000
    Si5674   Si       0.93128    0.47799    0.58656    1.000
    N5675    N        0.96902    0.31429    0.66721    1.000
    Si5676   Si       0.95433    0.33184    0.70324    1.000
    N5677    N        0.94601    0.37466    0.70024    1.000
    Si5678   Si       0.93386    0.30686    0.63983    1.000
    Si5679   Si       0.93605    0.47739    0.70541    1.000
    N5680    N        0.94661    0.43478    0.71430    1.000
    Si5681   Si       0.98068    0.48166    0.65357    1.000
    Si5682   Si       0.97247    0.40822    0.68290    1.000
    N5683    N        0.97584    0.43762    0.65122    1.000
    N5684    N        0.97107    0.49814    0.69217    1.000
    Si5685   Si       0.97828    0.42596    0.74536    1.000
    N5686    N        0.92921    0.26497    0.63353    1.000
    N5687    N        0.92858    0.30319    0.72293    1.000
    N5688    N        0.94469    0.28256    0.79526    1.000
    N5689    N        0.96408    0.29232    0.86363    1.000
    Si5690   Si       0.97359    0.33432    0.86384    1.000
    Si5691   Si       0.96121    0.26259    0.83089    1.000
    Si5692   Si       0.94841    0.27437    0.75064    1.000
    N5693    N        0.93876    0.35944    0.86683    1.000
    N5694    N        0.96566    0.40443    0.78207    1.000
    Si5695   Si       0.96274    0.49265    0.85367    1.000
    N5696    N        0.98761    0.41284    0.85694    1.000
    N5697    N        0.94905    0.45584    0.94213    1.000
    N5698    N        0.95131    0.34061    0.97244    1.000
    Si5699   Si       0.93934    0.26700    0.88857    1.000
    N5700    N        0.93658    0.28065    0.97213    1.000
    Si5701   Si       0.94780    0.37895    0.95798    1.000
    Si5702   Si       0.95244    0.44840    0.98511    1.000
    Si5703   Si       0.95731    0.39551    0.88353    1.000
    N5704    N        0.97357    0.38436    0.92296    1.000
    N5705    N        0.98903    0.47678    0.88290    1.000
    Si5706   Si       0.98683    0.47219    0.92682    1.000
    N5707    N        0.95459    0.40571    0.98959    1.000
    Si5708   Si       0.96169    0.30748    0.99811    1.000
    N5709    N        0.98897    0.49426    0.81941    1.000
    Si5710   Si       0.96703    0.54599    0.04623    1.000
    N5711    N        0.96171    0.52731    0.00753    1.000
    N5712    N        0.97312    0.58548    0.03171    1.000
    Si5713   Si       0.93696    0.60669    0.02042    1.000
    N5714    N        0.96076    0.59554    0.11016    1.000
    Si5715   Si       0.98448    0.63084    0.10198    1.000
    N5716    N        0.96131    0.66705    0.09369    1.000
    Si5717   Si       0.95121    0.67877    0.00826    1.000
    N5718    N        0.95241    0.74376    0.06311    1.000
    Si5719   Si       0.98288    0.69964    0.11375    1.000
    Si5720   Si       0.98942    0.72529    0.05006    1.000
    N5721    N        0.94925    0.72416    0.12372    1.000
    Si5722   Si       0.96036    0.58567    0.22481    1.000
    Si5723   Si       0.97608    0.56921    0.14602    1.000
    N5724    N        0.96732    0.52921    0.13839    1.000
    N5725    N        0.96313    0.59112    0.18233    1.000
    Si5726   Si       0.95565    0.63144    0.16445    1.000
    N5727    N        0.96338    0.66650    0.18700    1.000
    N5728    N        0.93304    0.50732    0.20134    1.000
    Si5729   Si       0.94973    0.69831    0.21414    1.000
    N5730    N        0.97846    0.73051    0.21466    1.000
    N5731    N        0.99078    0.68673    0.02576    1.000
    N5732    N        0.98986    0.61202    0.24659    1.000
    N5733    N        0.95971    0.54953    0.24513    1.000
    Si5734   Si       0.94892    0.58919    0.35708    1.000
    N5735    N        0.95166    0.51289    0.35865    1.000
    N5736    N        0.98646    0.60528    0.34093    1.000
    Si5737   Si       0.95386    0.65979    0.49466    1.000
    Si5738   Si       0.98343    0.74893    0.33846    1.000
    N5739    N        0.96488    0.66731    0.33909    1.000
    N5740    N        0.95875    0.73763    0.37236    1.000
    N5741    N        0.95331    0.68467    0.45837    1.000
    N5742    N        0.95682    0.58601    0.46054    1.000
    N5743    N        0.95899    0.56805    0.39566    1.000
    Si5744   Si       0.93117    0.56606    0.43136    1.000
    Si5745   Si       0.96089    0.69360    0.37402    1.000
    N5746    N        0.95420    0.67355    0.25070    1.000
    N5747    N        0.96683    0.55143    0.52467    1.000
    Si5748   Si       0.95703    0.53625    0.60435    1.000
    N5749    N        0.97461    0.62207    0.50452    1.000
    Si5750   Si       0.93878    0.51922    0.53581    1.000
    Si5751   Si       0.94907    0.58478    0.50226    1.000
    N5752    N        0.94791    0.62628    0.56359    1.000
    Si5753   Si       0.94307    0.63590    0.60557    1.000
    Si5754   Si       0.98705    0.62774    0.54555    1.000
    N5755    N        0.94734    0.67816    0.60160    1.000
    Si5756   Si       0.95912    0.69903    0.56325    1.000
    N5757    N        0.97431    0.68700    0.52346    1.000
    Si5758   Si       0.93936    0.60029    0.71335    1.000
    Si5759   Si       0.98009    0.59102    0.65612    1.000
    N5760    N        0.97586    0.58358    0.70017    1.000
    N5761    N        0.95197    0.56442    0.63328    1.000
    N5762    N        0.96883    0.62998    0.64319    1.000
    N5763    N        0.95383    0.63799    0.72985    1.000
    N5764    N        0.96264    0.74161    0.62222    1.000
    N5765    N        0.94763    0.69318    0.66619    1.000
    N5766    N        0.95089    0.71142    0.73156    1.000
    Si5767   Si       0.93299    0.70963    0.62861    1.000
    Si5768   Si       0.97898    0.67633    0.72584    1.000
    Si5769   Si       0.98572    0.66794    0.65473    1.000
    Si5770   Si       0.97329    0.53050    0.79744    1.000
    N5771    N        0.94671    0.62309    0.79351    1.000
    Si5772   Si       0.97492    0.56502    0.86314    1.000
    N5773    N        0.94798    0.53130    0.86496    1.000
    Si5774   Si       0.97807    0.62783    0.76410    1.000
    N5775    N        0.98698    0.53392    0.75631    1.000
    N5776    N        0.96926    0.60876    0.86910    1.000
    Si5777   Si       0.96567    0.63331    0.83174    1.000
    N5778    N        0.98861    0.56138    0.82159    1.000
    N5779    N        0.94819    0.63811    0.99233    1.000
    N5780    N        0.96968    0.67635    0.84003    1.000
    N5781    N        0.96814    0.73548    0.80157    1.000
    Si5782   Si       0.95580    0.74335    0.76023    1.000
    N5783    N        0.98551    0.73681    0.86928    1.000
    Si5784   Si       0.95267    0.61704    0.95315    1.000
    N5785    N        0.95201    0.57154    0.95295    1.000
    Si5786   Si       0.93109    0.54860    0.98271    1.000
    Si5787   Si       0.94482    0.74812    0.88570    1.000
    N5788    N        0.95632    0.71182    0.97782    1.000
    Si5789   Si       0.99128    0.71344    0.83200    1.000
    Si5790   Si       0.95285    0.76351    0.10446    1.000
    N5791    N        0.97896    0.87742    0.07690    1.000
    N5792    N        0.98775    0.78749    0.10871    1.000
    N5793    N        0.93689    0.83823    0.01828    1.000
    N5794    N        0.98834    0.97514    0.22376    1.000
    Si5795   Si       0.94875    0.99808    0.16548    1.000
    N5796    N        0.95216    0.99616    0.03034    1.000
    Si5797   Si       0.95637    0.91493    0.07259    1.000
    N5798    N        0.97975    0.95041    0.07970    1.000
    N5799    N        0.96086    0.93151    0.00837    1.000
    Si5800   Si       0.98265    0.98972    0.05969    1.000
    N5801    N        0.93432    0.91202    0.11093    1.000
    Si5802   Si       0.93762    0.85278    0.17609    1.000
    N5803    N        0.96901    0.84644    0.14667    1.000
    N5804    N        0.95034    0.78724    0.17471    1.000
    N5805    N        0.95320    0.84050    0.21446    1.000
    Si5806   Si       0.96474    0.77268    0.21390    1.000
    Si5807   Si       0.98397    0.80401    0.14992    1.000
    Si5808   Si       0.93461    0.92809    0.15168    1.000
    Si5809   Si       0.94979    0.98609    0.23480    1.000
    N5810    N        0.96754    0.95896    0.15473    1.000
    Si5811   Si       0.97121    0.86480    0.29372    1.000
    Si5812   Si       0.98392    0.82191    0.35862    1.000
    N5813    N        0.94037    0.81977    0.35214    1.000
    N5814    N        0.93993    0.83705    0.28102    1.000
    Si5815   Si       0.98546    0.98540    0.37536    1.000
    N5816    N        0.94500    0.96702    0.27506    1.000
    N5817    N        0.96479    0.96698    0.34076    1.000
    N5818    N        0.95580    0.90372    0.30613    1.000
    Si5819   Si       0.95968    0.99441    0.30537    1.000
    Si5820   Si       0.98396    0.93306    0.31619    1.000
    Si5821   Si       0.95195    0.79947    0.45678    1.000
    N5822    N        0.97298    0.83723    0.45711    1.000
    Si5823   Si       0.97851    0.85787    0.42027    1.000
    N5824    N        0.94452    0.79429    0.41462    1.000
    N5825    N        0.97805    0.77003    0.47410    1.000
    N5826    N        0.93746    0.86644    0.40524    1.000
    Si5827   Si       0.97007    0.93483    0.43034    1.000
    N5828    N        0.96385    0.93849    0.47318    1.000
    Si5829   Si       0.93841    0.96747    0.49243    1.000
    N5830    N        0.94622    0.99890    0.39312    1.000
    N5831    N        0.96822    0.75644    0.29781    1.000
    Si5832   Si       0.98348    0.85419    0.49529    1.000
    Si5833   Si       0.96622    0.81933    0.54832    1.000
    N5834    N        0.94682    0.84631    0.57753    1.000
    N5835    N        0.94407    0.84783    0.51592    1.000
    Si5836   Si       0.94979    0.76588    0.58417    1.000
    N5837    N        0.98729    0.78605    0.57421    1.000
    Si5838   Si       0.93364    0.88093    0.54946    1.000
    N5839    N        0.94504    0.00583    0.68003    1.000
    N5840    N        0.96978    0.99286    0.51119    1.000
    N5841    N        0.97394    0.90139    0.53712    1.000
    Si5842   Si       0.97690    0.91973    0.57535    1.000
    Si5843   Si       0.96934    0.99695    0.55569    1.000
    N5844    N        0.98428    0.96182    0.57528    1.000
    N5845    N        0.93263    0.91715    0.58337    1.000
    N5846    N        0.93613    0.76372    0.68221    1.000
    Si5847   Si       0.93246    0.79609    0.71033    1.000
    N5848    N        0.95471    0.82878    0.68970    1.000
    Si5849   Si       0.95386    0.77932    0.64521    1.000
    N5850    N        0.96131    0.78439    0.74111    1.000
    N5851    N        0.97459    0.90731    0.72073    1.000
    Si5852   Si       0.93847    0.88876    0.73025    1.000
    Si5853   Si       0.98671    0.94271    0.74548    1.000
    N5854    N        0.95708    0.97282    0.73510    1.000
    N5855    N        0.94944    0.95346    0.63897    1.000
    N5856    N        0.95138    0.89000    0.65627    1.000
    Si5857   Si       0.95856    0.80841    0.84417    1.000
    Si5858   Si       0.96761    0.81838    0.76698    1.000
    N5859    N        0.94672    0.85473    0.75509    1.000
    N5860    N        0.94498    0.81852    0.80403    1.000
    N5861    N        0.99074    0.80576    0.98174    1.000
    N5862    N        0.93994    0.88865    0.82542    1.000
    Si5863   Si       0.96218    0.99399    0.84725    1.000
    Si5864   Si       0.94689    0.92995    0.81312    1.000
    N5865    N        0.96736    0.95029    0.84811    1.000
    N5866    N        0.98239    0.93632    0.78858    1.000
    N5867    N        0.97238    0.97450    0.91746    1.000
    N5868    N        0.94581    0.83896    0.87208    1.000
    N5869    N        0.95478    0.84543    0.94397    1.000
    Si5870   Si       0.97038    0.83042    0.90568    1.000
    N5871    N        0.96887    0.78671    0.90778    1.000
    Si5872   Si       0.97108    0.77978    0.95338    1.000
    Si5873   Si       0.96627    0.84131    0.98626    1.000
    Si5874   Si       0.94511    0.00452    0.93008    1.000
    N5875    N        0.98780    0.90466    0.95050    1.000
    Si5876   Si       0.94787    0.88878    0.94200    1.000
    N5877    N        0.94990    0.90207    0.89793    1.000
    Si5878   Si       0.96060    0.97245    0.99296    1.000
    Si5879   Si       0.97327    0.93971    0.89175    1.000
