# CIF file generated by openbabel 3.1.1, see https://openbabel.org
data_I
_chemical_name_common '3.01-1.aims'
_cell_length_a 39.8733
_cell_length_b 39.8733
_cell_length_c 39.8733
_cell_angle_alpha 90
_cell_angle_beta 90
_cell_angle_gamma 90
loop_
    _atom_site_label
    _atom_site_type_symbol
    _atom_site_fract_x
    _atom_site_fract_y
    _atom_site_fract_z
    _atom_site_occupancy
    Si0      Si       0.01858    0.12536    0.04167    1.000
    Si1      Si       0.02910    0.05075    0.02009    1.000
    N2       N        0.06975    0.05076    0.00628    1.000
    N3       N        0.02604    0.08282    0.04872    1.000
    Si4      Si       0.11089    0.03541    0.00996    1.000
    N5       N        0.11122    0.12851    0.02363    1.000
    N6       N        0.01778    0.01022    0.03094    1.000
    N7       N        0.12465    0.05739    0.04498    1.000
    N8       N        0.18348    0.03824    0.00735    1.000
    Si9      Si       0.16546    0.06496    0.03752    1.000
    N10      N        0.17590    0.10222    0.01849    1.000
    N11      N        0.04782    0.14743    0.01717    1.000
    Si12     Si       0.04613    0.19098    0.01456    1.000
    N13      N        0.07793    0.21849    0.01821    1.000
    N14      N        0.01509    0.20144    0.04375    1.000
    Si15     Si       0.10922    0.21021    0.04775    1.000
    Si16     Si       0.22941    0.15894    0.00379    1.000
    Si17     Si       0.15380    0.14517    0.02188    1.000
    Si18     Si       0.21963    0.23361    0.01117    1.000
    N19      N        0.20134    0.23004    0.05063    1.000
    N20      N        0.14492    0.18782    0.03410    1.000
    N21      N        0.20131    0.15723    0.03583    1.000
    N22      N        0.23873    0.10013    0.04581    1.000
    Si23     Si       0.03581    0.06449    0.08702    1.000
    N24      N        0.09938    0.10522    0.09273    1.000
    N25      N        0.07201    0.04135    0.09206    1.000
    N26      N        0.00567    0.03441    0.09710    1.000
    Si27     Si       0.10918    0.06295    0.08522    1.000
    Si28     Si       0.17666    0.03490    0.09818    1.000
    N29      N        0.18812    0.07075    0.07354    1.000
    N30      N        0.20950    0.12754    0.10209    1.000
    Si31     Si       0.23352    0.06480    0.06967    1.000
    Si32     Si       0.19893    0.11599    0.05786    1.000
    Si33     Si       0.16822    0.12389    0.11261    1.000
    N34      N        0.15470    0.13168    0.07110    1.000
    N35      N        0.23802    0.18234    0.09441    1.000
    Si36     Si       0.11154    0.13697    0.06607    1.000
    N37      N        0.01098    0.14353    0.07966    1.000
    Si38     Si       0.09773    0.25204    0.10800    1.000
    Si39     Si       0.00723    0.18736    0.08419    1.000
    N40      N        0.09321    0.17595    0.07550    1.000
    N41      N        0.03327    0.20758    0.11007    1.000
    Si42     Si       0.07219    0.18703    0.11318    1.000
    Si43     Si       0.18290    0.18991    0.05737    1.000
    N44      N        0.11341    0.24849    0.06755    1.000
    Si45     Si       0.19004    0.24051    0.09173    1.000
    N46      N        0.17062    0.20227    0.09728    1.000
    Si47     Si       0.07431    0.11250    0.12889    1.000
    N48      N        0.10423    0.10016    0.16100    1.000
    N49      N        0.03675    0.09382    0.11830    1.000
    Si50     Si       0.99733    0.11720    0.11420    1.000
    Si51     Si       0.13703    0.06973    0.15215    1.000
    N52      N        0.17131    0.09612    0.14627    1.000
    N53      N        0.21177    0.02360    0.12113    1.000
    N54      N        0.99797    0.14926    0.14423    1.000
    N55      N        0.06464    0.15182    0.13730    1.000
    N56      N        0.10321    0.21380    0.12729    1.000
    Si57     Si       0.03363    0.15839    0.16712    1.000
    N58      N        0.00680    0.25972    0.15670    1.000
    Si59     Si       0.02468    0.24834    0.11471    1.000
    N60      N        0.21974    0.24019    0.12540    1.000
    N61      N        0.14302    0.15249    0.13422    1.000
    N62      N        0.21940    0.14402    0.16765    1.000
    Si63     Si       0.23627    0.15126    0.12601    1.000
    N64      N        0.15996    0.21961    0.16428    1.000
    Si65     Si       0.20191    0.22848    0.16546    1.000
    Si66     Si       0.14316    0.19537    0.13123    1.000
    Si67     Si       0.12638    0.13660    0.17131    1.000
    N68      N        0.13802    0.04659    0.11443    1.000
    Si69     Si       0.09905    0.07911    0.20109    1.000
    N70      N        0.06956    0.04838    0.20295    1.000
    Si71     Si       0.00293    0.11382    0.22700    1.000
    Si72     Si       0.03839    0.03858    0.23205    1.000
    N73      N        0.00741    0.07093    0.22969    1.000
    Si74     Si       0.13399    0.01750    0.21969    1.000
    N75      N        0.13475    0.05325    0.19250    1.000
    N76      N        0.21037    0.07929    0.20214    1.000
    Si77     Si       0.19229    0.11209    0.18136    1.000
    N78      N        0.17695    0.01050    0.22743    1.000
    Si79     Si       0.20099    0.04728    0.23290    1.000
    Si80     Si       0.00882    0.23282    0.19034    1.000
    N81      N        0.03244    0.14000    0.20788    1.000
    N82      N        0.09993    0.23553    0.19849    1.000
    N83      N        0.03634    0.25246    0.21966    1.000
    Si84     Si       0.10748    0.19823    0.21961    1.000
    N85      N        0.03074    0.19798    0.18453    1.000
    Si86     Si       0.03478    0.18077    0.22541    1.000
    N87      N        0.10582    0.16673    0.19145    1.000
    N88      N        0.15994    0.13466    0.20059    1.000
    N89      N        0.23405    0.20716    0.18382    1.000
    Si90     Si       0.23022    0.16868    0.20353    1.000
    Si91     Si       0.13040    0.25159    0.17329    1.000
    N92      N        0.04537    0.03033    0.27282    1.000
    N93      N        0.10263    0.10222    0.23465    1.000
    N94      N        0.99350    0.13298    0.26722    1.000
    Si95     Si       0.11352    0.10910    0.27485    1.000
    N96      N        0.11892    0.02611    0.25946    1.000
    N97      N        0.18212    0.06574    0.26776    1.000
    N98      N        0.15315    0.12843    0.26870    1.000
    Si99     Si       0.15047    0.04411    0.28507    1.000
    N100     N        0.00696    0.20322    0.25255    1.000
    Si101    Si       0.02279    0.24256    0.25928    1.000
    N102     N        0.07262    0.18637    0.24473    1.000
    Si103    Si       0.08063    0.17616    0.28509    1.000
    N104     N        0.13197    0.25556    0.28493    1.000
    Si105    Si       0.21894    0.19051    0.27357    1.000
    N106     N        0.14312    0.19670    0.24530    1.000
    Si107    Si       0.16202    0.15820    0.23809    1.000
    Si108    Si       0.14695    0.21284    0.28709    1.000
    N109     N        0.20376    0.16980    0.23771    1.000
    N110     N        0.02596    0.11847    0.32429    1.000
    Si111    Si       0.99960    0.09227    0.34308    1.000
    Si112    Si       0.06816    0.12731    0.33274    1.000
    Si113    Si       0.00760    0.02494    0.29498    1.000
    N114     N        0.08788    0.13399    0.29503    1.000
    N115     N        0.13347    0.08047    0.30558    1.000
    N116     N        0.20778    0.11240    0.31704    1.000
    N117     N        0.16202    0.01911    0.31885    1.000
    Si118    Si       0.11853    0.07059    0.34966    1.000
    Si119    Si       0.17482    0.10062    0.29325    1.000
    N120     N        0.18967    0.20496    0.30139    1.000
    N121     N        0.04250    0.18284    0.30528    1.000
    N122     N        0.99848    0.23209    0.32081    1.000
    Si123    Si       0.01006    0.15429    0.30134    1.000
    Si124    Si       0.03920    0.22315    0.32420    1.000
    N125     N        0.99046    0.05858    0.31634    1.000
    Si126    Si       0.10272    0.19644    0.34871    1.000
    Si127    Si       0.21109    0.21164    0.34058    1.000
    N128     N        0.11334    0.19460    0.30816    1.000
    N129     N        0.05636    0.24874    0.28940    1.000
    N130     N        0.01737    0.09678    0.38304    1.000
    Si131    Si       0.05964    0.08453    0.39192    1.000
    Si132    Si       0.08248    0.01534    0.39832    1.000
    N133     N        0.10987    0.02853    0.36559    1.000
    N134     N        0.08059    0.09054    0.35584    1.000
    Si135    Si       0.14046    0.03552    0.39745    1.000
    N136     N        0.21311    0.05978    0.35953    1.000
    N137     N        0.14449    0.07509    0.38370    1.000
    Si138    Si       0.21979    0.08019    0.39994    1.000
    N139     N        0.17393    0.00910    0.38515    1.000
    Si140    Si       0.19400    0.01975    0.34933    1.000
    Si141    Si       0.07518    0.25511    0.38262    1.000
    Si142    Si       0.09730    0.14851    0.39795    1.000
    N143     N        0.00928    0.20481    0.37919    1.000
    N144     N        0.08161    0.15899    0.35887    1.000
    N145     N        0.13639    0.20765    0.37343    1.000
    Si146    Si       0.14886    0.24865    0.38024    1.000
    N147     N        0.13834    0.14328    0.38829    1.000
    Si148    Si       0.16628    0.17840    0.38740    1.000
    N149     N        0.20550    0.17454    0.36599    1.000
    N150     N        0.18887    0.24470    0.35888    1.000
    Si151    Si       0.24061    0.15469    0.38566    1.000
    N152     N        0.07099    0.22559    0.35296    1.000
    Si153    Si       0.03062    0.04147    0.44746    1.000
    N154     N        0.00155    0.07462    0.44839    1.000
    Si155    Si       0.99875    0.10846    0.42163    1.000
    N156     N        0.07472    0.11490    0.41770    1.000
    N157     N        0.05920    0.04853    0.41378    1.000
    Si158    Si       0.21473    0.17737    0.45330    1.000
    N159     N        0.11521    0.01673    0.42771    1.000
    N160     N        0.13857    0.11036    0.44907    1.000
    N161     N        0.19265    0.10736    0.42131    1.000
    N162     N        0.23558    0.05103    0.42721    1.000
    Si163    Si       0.18171    0.11375    0.46730    1.000
    N164     N        0.01849    0.14038    0.44845    1.000
    Si165    Si       0.06280    0.14044    0.45138    1.000
    N166     N        0.99681    0.22024    0.44192    1.000
    N167     N        0.08675    0.17310    0.43177    1.000
    N168     N        0.06895    0.23245    0.42177    1.000
    Si169    Si       0.08660    0.21026    0.45519    1.000
    Si170    Si       0.02578    0.22849    0.41031    1.000
    Si171    Si       0.16522    0.21924    0.45059    1.000
    N172     N        0.15730    0.25247    0.42299    1.000
    N173     N        0.17816    0.18448    0.42849    1.000
    Si174    Si       0.15244    0.10924    0.40773    1.000
    Si175    Si       0.07413    0.06311    0.50944    1.000
    N176     N        0.03801    0.09005    0.50365    1.000
    N177     N        0.05362    0.03016    0.48626    1.000
    Si178    Si       0.99730    0.08854    0.48865    1.000
    N179     N        0.08728    0.13685    0.48846    1.000
    N180     N        0.11562    0.06838    0.49731    1.000
    Si181    Si       0.12125    0.11089    0.49036    1.000
    Si182    Si       0.15506    0.04768    0.50160    1.000
    N183     N        0.18969    0.06926    0.48230    1.000
    N184     N        0.16190    0.12850    0.50388    1.000
    Si185    Si       0.22983    0.05610    0.47209    1.000
    N186     N        0.23699    0.01587    0.48860    1.000
    N187     N        0.99533    0.18772    0.50477    1.000
    Si188    Si       0.99444    0.22690    0.48438    1.000
    Si189    Si       0.07566    0.16899    0.51386    1.000
    N190     N        0.06151    0.20299    0.48923    1.000
    Si191    Si       0.05263    0.23726    0.51564    1.000
    N192     N        0.09242    0.25338    0.51544    1.000
    N193     N        0.19834    0.21043    0.47957    1.000
    Si194    Si       0.19943    0.21910    0.52301    1.000
    N195     N        0.21724    0.13992    0.47550    1.000
    N196     N        0.12702    0.21714    0.47335    1.000
    Si197    Si       0.12252    0.22296    0.51701    1.000
    N198     N        0.16103    0.00813    0.48339    1.000
    N199     N        0.02412    0.02724    0.56019    1.000
    Si200    Si       0.06477    0.03998    0.56850    1.000
    N201     N        0.07305    0.08011    0.55345    1.000
    N202     N        0.00542    0.09385    0.56319    1.000
    Si203    Si       0.04027    0.10931    0.54176    1.000
    N204     N        0.09101    0.01940    0.54156    1.000
    Si205    Si       0.09860    0.10243    0.58060    1.000
    Si206    Si       0.19531    0.05432    0.56575    1.000
    N207     N        0.16081    0.03683    0.54393    1.000
    N208     N        0.19084    0.09584    0.56040    1.000
    N209     N        0.12092    0.12374    0.55222    1.000
    Si210    Si       0.16515    0.12741    0.54687    1.000
    Si211    Si       0.23472    0.09992    0.56619    1.000
    N212     N        0.23751    0.05584    0.55384    1.000
    Si213    Si       0.01194    0.18202    0.54459    1.000
    N214     N        0.03193    0.22023    0.55355    1.000
    N215     N        0.04320    0.15306    0.53760    1.000
    N216     N        0.10561    0.18882    0.53833    1.000
    N217     N        0.16843    0.16271    0.57107    1.000
    N218     N        0.15941    0.22490    0.53833    1.000
    N219     N        0.22288    0.19072    0.54324    1.000
    Si220    Si       0.11902    0.16565    0.57359    1.000
    Si221    Si       0.15482    0.22397    0.58245    1.000
    N222     N        0.06501    0.03035    0.61217    1.000
    Si223    Si       0.10611    0.03447    0.62745    1.000
    N224     N        0.02128    0.12664    0.62675    1.000
    Si225    Si       0.02594    0.01247    0.62320    1.000
    Si226    Si       0.99227    0.11914    0.59477    1.000
    N227     N        0.11395    0.07579    0.61124    1.000
    N228     N        0.99095    0.03756    0.62764    1.000
    N229     N        0.19944    0.04110    0.60608    1.000
    Si230    Si       0.23818    0.05687    0.62327    1.000
    Si231    Si       0.24338    0.13976    0.62948    1.000
    N232     N        0.08651    0.14237    0.59732    1.000
    Si233    Si       0.02651    0.23208    0.59549    1.000
    Si234    Si       0.05360    0.15487    0.62149    1.000
    N235     N        0.03686    0.19601    0.61921    1.000
    Si236    Si       0.11880    0.17603    0.64406    1.000
    Si237    Si       0.20599    0.17948    0.59333    1.000
    N238     N        0.19600    0.22113    0.59646    1.000
    N239     N        0.12479    0.19855    0.60527    1.000
    N240     N        0.20386    0.15745    0.63250    1.000
    N241     N        0.13965    0.13703    0.64115    1.000
    N242     N        0.23912    0.09788    0.61032    1.000
    N243     N        0.09974    0.03080    0.67025    1.000
    N244     N        0.09275    0.09856    0.67226    1.000
    Si245    Si       0.00867    0.12037    0.66907    1.000
    N246     N        0.00952    0.07646    0.67648    1.000
    Si247    Si       0.99409    0.03497    0.67543    1.000
    Si248    Si       0.10160    0.06492    0.69906    1.000
    N249     N        0.03567    0.12929    0.70169    1.000
    N250     N        0.02828    0.00909    0.66851    1.000
    N251     N        0.22515    0.04597    0.66496    1.000
    N252     N        0.15843    0.07067    0.66027    1.000
    N253     N        0.18753    0.12423    0.69222    1.000
    Si254    Si       0.18550    0.03937    0.64683    1.000
    Si255    Si       0.17250    0.08316    0.69916    1.000
    Si256    Si       0.07785    0.13481    0.69054    1.000
    N257     N        0.07607    0.16663    0.65956    1.000
    N258     N        0.01131    0.19704    0.68579    1.000
    N259     N        0.06774    0.23310    0.67528    1.000
    Si260    Si       0.04727    0.20003    0.65989    1.000
    Si261    Si       0.16890    0.21368    0.70351    1.000
    N262     N        0.20972    0.22437    0.68779    1.000
    Si263    Si       0.17447    0.15148    0.66255    1.000
    N264     N        0.15022    0.18790    0.67310    1.000
    Si265    Si       0.12711    0.09713    0.64599    1.000
    N266     N        0.06840    0.06669    0.72792    1.000
    N267     N        0.00732    0.03724    0.72673    1.000
    Si268    Si       0.02834    0.07832    0.71505    1.000
    N269     N        0.00680    0.09725    0.74859    1.000
    Si270    Si       0.12980    0.11772    0.74745    1.000
    N271     N        0.13511    0.08248    0.72285    1.000
    N272     N        0.22653    0.10535    0.73947    1.000
    N273     N        0.18716    0.05065    0.72269    1.000
    Si274    Si       0.15934    0.05014    0.75785    1.000
    Si275    Si       0.22178    0.02811    0.70635    1.000
    Si276    Si       0.22708    0.13384    0.70650    1.000
    N277     N        0.16574    0.13571    0.76148    1.000
    Si278    Si       0.02067    0.14068    0.74224    1.000
    N279     N        0.09547    0.21587    0.74231    1.000
    N280     N        0.03029    0.24172    0.73637    1.000
    N281     N        0.10081    0.14339    0.72681    1.000
    Si282    Si       0.07033    0.24119    0.71842    1.000
    Si283    Si       0.08929    0.17514    0.75716    1.000
    Si284    Si       0.13380    0.23746    0.75137    1.000
    N285     N        0.16001    0.20140    0.74460    1.000
    N286     N        0.15448    0.25228    0.71559    1.000
    N287     N        0.23818    0.17112    0.73051    1.000
    Si288    Si       0.00042    0.23376    0.70321    1.000
    N289     N        0.06305    0.04997    0.80235    1.000
    Si290    Si       0.02745    0.02654    0.80556    1.000
    N291     N        0.10532    0.10008    0.78196    1.000
    Si292    Si       0.08528    0.06352    0.76769    1.000
    Si293    Si       0.22175    0.17231    0.82076    1.000
    N294     N        0.17050    0.08002    0.78700    1.000
    Si295    Si       0.20013    0.11024    0.77288    1.000
    Si296    Si       0.13637    0.09717    0.81508    1.000
    N297     N        0.18395    0.01429    0.77213    1.000
    N298     N        0.11823    0.03321    0.76037    1.000
    N299     N        0.22349    0.13150    0.80318    1.000
    N300     N        0.18280    0.19068    0.80898    1.000
    N301     N        0.99956    0.15754    0.81020    1.000
    Si302    Si       0.04183    0.15110    0.81048    1.000
    N303     N        0.05022    0.15885    0.76802    1.000
    Si304    Si       0.99598    0.25096    0.76319    1.000
    N305     N        0.11694    0.17469    0.78935    1.000
    Si306    Si       0.15953    0.17482    0.77770    1.000
    N307     N        0.20002    0.25651    0.78637    1.000
    Si308    Si       0.17377    0.23447    0.81337    1.000
    N309     N        0.13528    0.24891    0.79218    1.000
    Si310    Si       0.08699    0.04005    0.83815    1.000
    N311     N        0.05478    0.04581    0.86780    1.000
    N312     N        0.03568    0.11282    0.82969    1.000
    Si313    Si       0.03916    0.08581    0.86449    1.000
    Si314    Si       0.99445    0.12207    0.83817    1.000
    N315     N        0.13514    0.18918    0.86911    1.000
    N316     N        0.12273    0.06486    0.84086    1.000
    N317     N        0.22740    0.03898    0.82819    1.000
    Si318    Si       0.21339    0.03566    0.86840    1.000
    N319     N        0.13629    0.13167    0.83837    1.000
    Si320    Si       0.14605    0.06993    0.87633    1.000
    N321     N        0.17027    0.03485    0.87559    1.000
    N322     N        0.01427    0.21375    0.85984    1.000
    N323     N        0.07111    0.23517    0.86898    1.000
    Si324    Si       0.05311    0.19504    0.87073    1.000
    N325     N        0.07116    0.17042    0.83935    1.000
    Si326    Si       0.03170    0.25400    0.86832    1.000
    Si327    Si       0.11365    0.16963    0.83375    1.000
    N328     N        0.00074    0.14451    0.87649    1.000
    N329     N        0.18096    0.23951    0.85492    1.000
    Si330    Si       0.09379    0.10790    0.91991    1.000
    N331     N        0.05681    0.10949    0.89712    1.000
    Si332    Si       0.04122    0.02330    0.90121    1.000
    N333     N        0.99983    0.03559    0.91194    1.000
    Si334    Si       0.10895    0.03430    0.92992    1.000
    N335     N        0.11606    0.07169    0.90891    1.000
    Si336    Si       0.20433    0.09313    0.91307    1.000
    N337     N        0.23341    0.06299    0.89620    1.000
    N338     N        0.17374    0.10145    0.88372    1.000
    N339     N        0.23771    0.12404    0.91087    1.000
    N340     N        0.04918    0.17572    0.90966    1.000
    Si341    Si       0.02742    0.13797    0.91163    1.000
    N342     N        0.01480    0.25441    0.91041    1.000
    N343     N        0.12267    0.14018    0.91302    1.000
    N344     N        0.13668    0.25725    0.89872    1.000
    N345     N        0.18710    0.16753    0.89558    1.000
    Si346    Si       0.23019    0.16473    0.89904    1.000
    Si347    Si       0.23223    0.25583    0.91665    1.000
    Si348    Si       0.16817    0.20880    0.88907    1.000
    N349     N        0.20006    0.22605    0.91753    1.000
    Si350    Si       0.12204    0.24159    0.93842    1.000
    N351     N        0.17517    0.00697    0.93845    1.000
    Si352    Si       0.15210    0.14183    0.88001    1.000
    N353     N        0.07962    0.10312    0.96115    1.000
    N354     N        0.01425    0.06646    0.97945    1.000
    Si355    Si       0.05799    0.06580    0.96595    1.000
    Si356    Si       0.99315    0.10574    0.97558    1.000
    Si357    Si       0.08305    0.13247    0.99322    1.000
    N358     N        0.06528    0.03566    0.93604    1.000
    N359     N        0.12759    0.03794    0.96873    1.000
    Si360    Si       0.18657    0.11229    0.97858    1.000
    Si361    Si       0.17389    0.04120    0.96431    1.000
    N362     N        0.18837    0.07824    0.95040    1.000
    N363     N        0.22660    0.12863    0.97498    1.000
    N364     N        0.16134    0.14679    0.97664    1.000
    Si365    Si       0.99375    0.17740    0.95842    1.000
    N366     N        0.00518    0.13523    0.94838    1.000
    N367     N        0.03168    0.19490    0.97278    1.000
    N368     N        0.09289    0.16761    0.96783    1.000
    Si369    Si       0.06637    0.19308    0.94616    1.000
    N370     N        0.08078    0.23224    0.94228    1.000
    Si371    Si       0.08383    0.25825    0.99544    1.000
    N372     N        0.19131    0.25369    0.98402    1.000
    N373     N        0.21561    0.19694    0.98606    1.000
    Si374    Si       0.18610    0.21814    0.95944    1.000
    N375     N        0.14654    0.20700    0.94357    1.000
    Si376    Si       0.13205    0.16508    0.94854    1.000
    N377     N        0.03562    0.34560    0.01863    1.000
    N378     N        0.10278    0.36156    0.01456    1.000
    N379     N        0.08950    0.29149    0.02137    1.000
    Si380    Si       0.07386    0.32987    0.00332    1.000
    N381     N        0.15934    0.30169    0.02686    1.000
    Si382    Si       0.18936    0.33462    0.03562    1.000
    N383     N        0.22336    0.33883    0.00978    1.000
    N384     N        0.16478    0.37120    0.03571    1.000
    Si385    Si       0.12312    0.28848    0.04721    1.000
    Si386    Si       0.12613    0.35894    0.05107    1.000
    N387     N        0.04297    0.48130    0.03579    1.000
    Si388    Si       0.00498    0.48052    0.01388    1.000
    Si389    Si       0.06431    0.50219    0.00192    1.000
    N390     N        0.99642    0.44190    0.99792    1.000
    Si391    Si       0.17013    0.41033    0.02272    1.000
    N392     N        0.20603    0.43550    0.01444    1.000
    N393     N        0.13460    0.42199    0.00089    1.000
    N394     N        0.13214    0.48528    0.03001    1.000
    Si395    Si       0.01931    0.36028    0.05646    1.000
    N396     N        0.05009    0.35071    0.08452    1.000
    Si397    Si       0.08210    0.37162    0.10337    1.000
    N398     N        0.05994    0.27274    0.10309    1.000
    Si399    Si       0.05337    0.31451    0.11080    1.000
    N400     N        0.23824    0.40846    0.07009    1.000
    Si401    Si       0.13556    0.46565    0.06936    1.000
    N402     N        0.12342    0.32184    0.07592    1.000
    N403     N        0.20558    0.34279    0.07489    1.000
    N404     N        0.17908    0.28239    0.09697    1.000
    Si405    Si       0.22806    0.37584    0.09453    1.000
    Si406    Si       0.18925    0.32118    0.10892    1.000
    Si407    Si       0.99327    0.43483    0.08511    1.000
    N408     N        0.02608    0.45901    0.10059    1.000
    Si409    Si       0.05741    0.48017    0.07773    1.000
    N410     N        0.09401    0.45836    0.08384    1.000
    N411     N        0.00941    0.40327    0.05774    1.000
    N412     N        0.11664    0.38640    0.08322    1.000
    Si413    Si       0.21106    0.44132    0.05762    1.000
    Si414    Si       0.15379    0.40755    0.09659    1.000
    N415     N        0.16698    0.43349    0.06310    1.000
    N416     N        0.15022    0.49029    0.10209    1.000
    N417     N        0.08895    0.33467    0.12986    1.000
    N418     N        0.01798    0.32079    0.13511    1.000
    Si419    Si       0.07956    0.33700    0.17236    1.000
    N420     N        0.12264    0.27412    0.13544    1.000
    Si421    Si       0.23140    0.27633    0.14497    1.000
    N422     N        0.22575    0.31496    0.13219    1.000
    N423     N        0.15879    0.33522    0.13755    1.000
    Si424    Si       0.12551    0.31412    0.12077    1.000
    Si425    Si       0.02733    0.45845    0.14355    1.000
    N426     N        0.01103    0.49604    0.15717    1.000
    N427     N        0.07223    0.46188    0.15335    1.000
    N428     N        0.07205    0.40073    0.13426    1.000
    Si429    Si       0.09309    0.43675    0.12355    1.000
    N430     N        0.01611    0.42718    0.17148    1.000
    Si431    Si       0.15717    0.46667    0.13780    1.000
    N432     N        0.19680    0.45596    0.14853    1.000
    N433     N        0.13795    0.48829    0.17026    1.000
    Si434    Si       0.21914    0.49240    0.15750    1.000
    N435     N        0.13417    0.43148    0.12825    1.000
    Si436    Si       0.19725    0.41044    0.15445    1.000
    Si437    Si       0.15751    0.35256    0.17629    1.000
    N438     N        0.19167    0.39622    0.11437    1.000
    N439     N        0.05179    0.36428    0.18967    1.000
    N440     N        0.00704    0.31413    0.21432    1.000
    Si441    Si       0.02679    0.35317    0.22418    1.000
    N442     N        0.06335    0.29957    0.17973    1.000
    Si443    Si       0.07364    0.26923    0.20967    1.000
    Si444    Si       0.02032    0.29839    0.17343    1.000
    N445     N        0.21344    0.26787    0.18348    1.000
    Si446    Si       0.22949    0.35426    0.19758    1.000
    N447     N        0.11934    0.33967    0.19265    1.000
    N448     N        0.14731    0.28027    0.20262    1.000
    Si449    Si       0.18786    0.29163    0.21167    1.000
    N450     N        0.18913    0.33326    0.19851    1.000
    Si451    Si       0.12422    0.30920    0.22296    1.000
    N452     N        0.23240    0.38980    0.17239    1.000
    N453     N        0.99951    0.38664    0.22728    1.000
    N454     N        0.10390    0.49352    0.22117    1.000
    N455     N        0.06078    0.42069    0.21593    1.000
    Si456    Si       0.01432    0.42450    0.21540    1.000
    Si457    Si       0.09432    0.49041    0.17818    1.000
    Si458    Si       0.16336    0.41391    0.21790    1.000
    N459     N        0.16377    0.39534    0.18070    1.000
    N460     N        0.18494    0.45022    0.21473    1.000
    Si461    Si       0.22725    0.46020    0.21960    1.000
    Si462    Si       0.14487    0.47393    0.21731    1.000
    N463     N        0.12701    0.43346    0.22933    1.000
    Si464    Si       0.05645    0.40545    0.17502    1.000
    N465     N        0.03825    0.35577    0.26566    1.000
    N466     N        0.09104    0.29020    0.24244    1.000
    Si467    Si       0.09140    0.27474    0.28402    1.000
    N468     N        0.10299    0.37718    0.26217    1.000
    Si469    Si       0.00238    0.36814    0.28616    1.000
    Si470    Si       0.07719    0.35136    0.28629    1.000
    N471     N        0.99266    0.27147    0.26930    1.000
    Si472    Si       0.16202    0.28849    0.27870    1.000
    Si473    Si       0.14622    0.36983    0.26806    1.000
    N474     N        0.14625    0.32351    0.25671    1.000
    N475     N        0.19478    0.27470    0.25210    1.000
    Si476    Si       0.23536    0.26271    0.26410    1.000
    Si477    Si       0.04194    0.47075    0.26994    1.000
    Si478    Si       0.09057    0.41862    0.24708    1.000
    N479     N        0.07160    0.44096    0.28005    1.000
    N480     N        0.00841    0.45653    0.24246    1.000
    N481     N        0.23007    0.49734    0.24012    1.000
    N482     N        0.17877    0.38720    0.24658    1.000
    N483     N        0.16296    0.50515    0.24319    1.000
    Si484    Si       0.21899    0.39166    0.25672    1.000
    N485     N        0.01323    0.36360    0.33027    1.000
    N486     N        0.08838    0.31334    0.30653    1.000
    N487     N        0.07603    0.38022    0.32342    1.000
    N488     N        0.17097    0.29806    0.31835    1.000
    Si489    Si       0.20366    0.28015    0.33904    1.000
    N490     N        0.23332    0.27023    0.30750    1.000
    N491     N        0.15264    0.38148    0.30863    1.000
    N492     N        0.02801    0.49382    0.30712    1.000
    Si493    Si       0.07283    0.42488    0.31980    1.000
    N494     N        0.03593    0.43791    0.34072    1.000
    Si495    Si       0.00517    0.40544    0.33908    1.000
    N496     N        0.11107    0.43135    0.33795    1.000
    Si497    Si       0.02199    0.47859    0.34634    1.000
    N498     N        0.22082    0.38670    0.30111    1.000
    N499     N        0.23503    0.46863    0.30599    1.000
    Si500    Si       0.20225    0.46320    0.33616    1.000
    Si501    Si       0.11933    0.38639    0.33709    1.000
    N502     N        0.16349    0.48079    0.31980    1.000
    Si503    Si       0.13174    0.46872    0.34685    1.000
    Si504    Si       0.18886    0.38824    0.32942    1.000
    N505     N        0.18540    0.42629    0.35002    1.000
    N506     N        0.06221    0.32104    0.36790    1.000
    N507     N        0.03192    0.26716    0.39012    1.000
    N508     N        0.00068    0.33158    0.39234    1.000
    Si509    Si       0.03562    0.30882    0.40153    1.000
    Si510    Si       0.04974    0.35861    0.35337    1.000
    Si511    Si       0.99360    0.37461    0.39930    1.000
    Si512    Si       0.09998    0.31053    0.34882    1.000
    N513     N        0.11349    0.27357    0.37056    1.000
    N514     N        0.03645    0.38449    0.38718    1.000
    N515     N        0.12383    0.34603    0.35633    1.000
    Si516    Si       0.15312    0.35468    0.38508    1.000
    N517     N        0.19112    0.36239    0.36558    1.000
    Si518    Si       0.22956    0.34649    0.37549    1.000
    N519     N        0.23091    0.30872    0.35685    1.000
    N520     N        0.10851    0.50626    0.35793    1.000
    Si521    Si       0.16419    0.42574    0.38961    1.000
    N522     N        0.13851    0.39260    0.39898    1.000
    Si523    Si       0.12049    0.49830    0.40021    1.000
    N524     N        0.14217    0.46384    0.38881    1.000
    N525     N        0.21587    0.48191    0.37309    1.000
    Si526    Si       0.22874    0.45305    0.40185    1.000
    N527     N        0.04241    0.30834    0.44417    1.000
    N528     N        0.08470    0.36457    0.44213    1.000
    Si529    Si       0.07885    0.32350    0.45785    1.000
    N530     N        0.11478    0.30042    0.46329    1.000
    Si531    Si       0.15323    0.29158    0.44033    1.000
    Si532    Si       0.19850    0.33590    0.44240    1.000
    N533     N        0.16186    0.32773    0.41801    1.000
    N534     N        0.23334    0.34290    0.41902    1.000
    N535     N        0.19048    0.29889    0.46484    1.000
    N536     N        0.00668    0.38836    0.44153    1.000
    Si537    Si       0.04936    0.39096    0.42933    1.000
    N538     N        0.08282    0.49185    0.42355    1.000
    N539     N        0.07638    0.42533    0.43798    1.000
    Si540    Si       0.07578    0.46463    0.45794    1.000
    Si541    Si       0.03819    0.49478    0.41763    1.000
    N542     N        0.03265    0.47686    0.46079    1.000
    Si543    Si       0.11110    0.39801    0.43333    1.000
    Si544    Si       0.18323    0.41094    0.45823    1.000
    N545     N        0.19657    0.42736    0.41877    1.000
    N546     N        0.23822    0.47807    0.43805    1.000
    N547     N        0.13983    0.41452    0.46130    1.000
    Si548    Si       0.99019    0.47226    0.44822    1.000
    N549     N        0.19461    0.37055    0.46654    1.000
    N550     N        0.00248    0.46940    0.40583    1.000
    N551     N        0.07124    0.32038    0.50358    1.000
    N552     N        0.00526    0.32539    0.50260    1.000
    Si553    Si       0.01269    0.29450    0.47144    1.000
    Si554    Si       0.10597    0.29480    0.50845    1.000
    Si555    Si       0.18956    0.29324    0.50809    1.000
    Si556    Si       0.20494    0.36960    0.50971    1.000
    N557     N        0.21830    0.26056    0.52263    1.000
    N558     N        0.21244    0.32708    0.51992    1.000
    N559     N        0.14741    0.29256    0.52270    1.000
    N560     N        0.02225    0.25899    0.49305    1.000
    Si561    Si       0.99585    0.40007    0.48108    1.000
    N562     N        0.08895    0.45967    0.49670    1.000
    Si563    Si       0.02121    0.45384    0.49703    1.000
    N564     N        0.03362    0.41252    0.50176    1.000
    N565     N        0.10598    0.39728    0.52263    1.000
    Si566    Si       0.15804    0.49722    0.51631    1.000
    N567     N        0.15214    0.45516    0.51897    1.000
    Si568    Si       0.21480    0.47804    0.47358    1.000
    N569     N        0.20697    0.43837    0.48648    1.000
    Si570    Si       0.12228    0.42912    0.49790    1.000
    N571     N        0.17787    0.50003    0.47748    1.000
    N572     N        0.23791    0.39204    0.52646    1.000
    Si573    Si       0.18929    0.43379    0.52564    1.000
    N574     N        0.02310    0.30648    0.56317    1.000
    N575     N        0.04760    0.37010    0.54959    1.000
    N576     N        0.09471    0.30130    0.56547    1.000
    Si577    Si       0.03759    0.33133    0.53029    1.000
    N578     N        0.14595    0.34510    0.56522    1.000
    Si579    Si       0.13796    0.30337    0.56394    1.000
    Si580    Si       0.13776    0.38365    0.54783    1.000
    Si581    Si       0.24021    0.30997    0.55001    1.000
    Si582    Si       0.09559    0.48059    0.54034    1.000
    N583     N        0.01162    0.47387    0.53263    1.000
    Si584    Si       0.03879    0.47026    0.56731    1.000
    N585     N        0.06957    0.44107    0.55768    1.000
    Si586    Si       0.06473    0.40610    0.53120    1.000
    N587     N        0.06266    0.50640    0.55940    1.000
    Si588    Si       0.20513    0.48375    0.57630    1.000
    N589     N        0.12036    0.47335    0.57861    1.000
    N590     N        0.17259    0.39269    0.52391    1.000
    N591     N        0.19989    0.44179    0.56765    1.000
    N592     N        0.05672    0.33896    0.60829    1.000
    N593     N        0.05547    0.26307    0.60973    1.000
    Si594    Si       0.04295    0.37763    0.59378    1.000
    Si595    Si       0.05856    0.30026    0.58850    1.000
    N596     N        0.13978    0.32789    0.62679    1.000
    Si597    Si       0.15333    0.36583    0.60574    1.000
    Si598    Si       0.22214    0.33838    0.60186    1.000
    N599     N        0.19534    0.37228    0.60077    1.000
    Si600    Si       0.14834    0.28489    0.62917    1.000
    N601     N        0.14930    0.26859    0.58824    1.000
    Si602    Si       0.21062    0.26193    0.60447    1.000
    N603     N        0.00333    0.38964    0.60832    1.000
    N604     N        0.06945    0.40782    0.61463    1.000
    N605     N        0.01843    0.45571    0.60353    1.000
    Si606    Si       0.04470    0.43972    0.63320    1.000
    Si607    Si       0.10883    0.39865    0.63795    1.000
    Si608    Si       0.10105    0.43570    0.58987    1.000
    N609     N        0.12740    0.39919    0.58970    1.000
    Si610    Si       0.21315    0.41421    0.60119    1.000
    N611     N        0.18596    0.49645    0.61322    1.000
    N612     N        0.11571    0.44081    0.63656    1.000
    Si613    Si       0.14442    0.50436    0.60215    1.000
    N614     N        0.21453    0.29937    0.58289    1.000
    N615     N        0.05972    0.30257    0.66830    1.000
    N616     N        0.09233    0.36619    0.66764    1.000
    N617     N        0.01751    0.35269    0.66177    1.000
    Si618    Si       0.05913    0.34161    0.65054    1.000
    Si619    Si       0.07528    0.26574    0.64815    1.000
    N620     N        0.00477    0.26858    0.67445    1.000
    Si621    Si       0.02268    0.30301    0.69296    1.000
    N622     N        0.11981    0.26819    0.65418    1.000
    Si623    Si       0.13235    0.34720    0.66510    1.000
    N624     N        0.21107    0.36374    0.68179    1.000
    N625     N        0.15276    0.31980    0.69293    1.000
    Si626    Si       0.13066    0.28086    0.69497    1.000
    N627     N        0.19061    0.27696    0.64056    1.000
    Si628    Si       0.01274    0.38697    0.68647    1.000
    N629     N        0.01963    0.42611    0.66696    1.000
    Si630    Si       0.10264    0.47789    0.65580    1.000
    N631     N        0.00079    0.49604    0.66595    1.000
    N632     N        0.06132    0.47874    0.64706    1.000
    Si633    Si       0.18716    0.39882    0.66959    1.000
    N634     N        0.14899    0.38415    0.64961    1.000
    N635     N        0.21532    0.49490    0.68022    1.000
    N636     N        0.17531    0.42643    0.70170    1.000
    N637     N        0.12122    0.47908    0.69602    1.000
    Si638    Si       0.22306    0.25734    0.66348    1.000
    Si639    Si       0.20220    0.46130    0.70507    1.000
    N640     N        0.21150    0.42323    0.64219    1.000
    Si641    Si       0.08295    0.30994    0.74470    1.000
    N642     N        0.10468    0.34541    0.73794    1.000
    N643     N        0.04263    0.31273    0.73223    1.000
    N644     N        0.09732    0.27486    0.72139    1.000
    Si645    Si       0.08258    0.37292    0.71095    1.000
    Si646    Si       0.00483    0.32226    0.75217    1.000
    N647     N        0.04161    0.38148    0.71712    1.000
    N648     N        0.20691    0.30536    0.73300    1.000
    N649     N        0.17528    0.36737    0.73812    1.000
    Si650    Si       0.18931    0.33743    0.70949    1.000
    N651     N        0.10317    0.41054    0.71933    1.000
    Si652    Si       0.99594    0.47191    0.75379    1.000
    Si653    Si       0.03249    0.39342    0.75826    1.000
    N654     N        0.00640    0.42824    0.75721    1.000
    N655     N        0.03426    0.49835    0.75604    1.000
    Si656    Si       0.13257    0.44035    0.71052    1.000
    N657     N        0.14473    0.44223    0.75132    1.000
    Si658    Si       0.17573    0.41001    0.74408    1.000
    N659     N        0.20300    0.48856    0.74038    1.000
    N660     N        0.13564    0.51103    0.75850    1.000
    N661     N        0.08512    0.30251    0.78771    1.000
    N662     N        0.01021    0.35882    0.77275    1.000
    N663     N        0.99569    0.29175    0.78105    1.000
    Si664    Si       0.00883    0.36384    0.81663    1.000
    Si665    Si       0.12223    0.28708    0.80414    1.000
    N666     N        0.22071    0.31908    0.80121    1.000
    N667     N        0.15236    0.31567    0.78387    1.000
    Si668    Si       0.19104    0.29758    0.77764    1.000
    Si669    Si       0.13988    0.35318    0.76264    1.000
    Si670    Si       0.10638    0.41797    0.76535    1.000
    Si671    Si       0.06728    0.43188    0.81196    1.000
    N672     N        0.09725    0.45639    0.78777    1.000
    N673     N        0.06788    0.40162    0.78100    1.000
    Si674    Si       0.06460    0.48756    0.78716    1.000
    N675     N        0.03765    0.46295    0.81204    1.000
    Si676    Si       0.99808    0.44779    0.81656    1.000
    N677     N        0.20807    0.42241    0.76981    1.000
    N678     N        0.17250    0.47179    0.80414    1.000
    Si679    Si       0.13679    0.47524    0.78101    1.000
    Si680    Si       0.20762    0.46508    0.77755    1.000
    N681     N        0.13351    0.38821    0.78639    1.000
    Si682    Si       0.21566    0.39965    0.80672    1.000
    N683     N        0.03239    0.28744    0.83981    1.000
    N684     N        0.04733    0.35243    0.83387    1.000
    N685     N        0.10513    0.29591    0.84577    1.000
    Si686    Si       0.06575    0.31096    0.82730    1.000
    Si687    Si       0.07621    0.37625    0.86100    1.000
    Si688    Si       0.99199    0.29446    0.82359    1.000
    N689     N        0.11764    0.36319    0.84937    1.000
    N690     N        0.23441    0.33853    0.86588    1.000
    Si691    Si       0.20150    0.33577    0.83769    1.000
    N692     N        0.17076    0.31158    0.85468    1.000
    Si693    Si       0.13141    0.32537    0.86494    1.000
    N694     N        0.18366    0.37472    0.82506    1.000
    N695     N        0.10097    0.48793    0.85763    1.000
    N696     N        0.07518    0.41858    0.85086    1.000
    N697     N        0.99760    0.40478    0.82509    1.000
    Si698    Si       0.10873    0.44455    0.86824    1.000
    N699     N        0.21813    0.43156    0.83877    1.000
    Si700    Si       0.14453    0.39164    0.82818    1.000
    N701     N        0.18196    0.48453    0.87518    1.000
    N702     N        0.14320    0.42908    0.84728    1.000
    Si703    Si       0.17921    0.45379    0.84595    1.000
    Si704    Si       0.99184    0.49657    0.87130    1.000
    Si705    Si       0.17246    0.27445    0.88044    1.000
    Si706    Si       0.08306    0.32671    0.91817    1.000
    N707     N        0.07069    0.28744    0.90679    1.000
    N708     N        0.06568    0.36422    0.90128    1.000
    Si709    Si       0.09906    0.26737    0.88008    1.000
    N710     N        0.12416    0.32566    0.90649    1.000
    Si711    Si       0.21752    0.32965    0.90404    1.000
    N712     N        0.18536    0.35728    0.91269    1.000
    N713     N        0.20563    0.28900    0.90525    1.000
    Si714    Si       0.15178    0.33897    0.93597    1.000
    N715     N        0.99067    0.50634    0.91415    1.000
    N716     N        0.09697    0.45549    0.91041    1.000
    Si717    Si       0.09831    0.49804    0.90112    1.000
    Si718    Si       0.02565    0.49349    0.93672    1.000
    Si719    Si       0.17190    0.47770    0.92404    1.000
    Si720    Si       0.17466    0.39500    0.93255    1.000
    N721     N        0.20815    0.50194    0.93308    1.000
    N722     N        0.17480    0.43448    0.91910    1.000
    N723     N        0.05846    0.51082    0.91267    1.000
    Si724    Si       0.04848    0.26374    0.93635    1.000
    N725     N        0.03186    0.44990    0.93759    1.000
    N726     N        0.07222    0.33781    0.95834    1.000
    Si727    Si       0.00567    0.35403    0.98599    1.000
    N728     N        0.04358    0.27211    0.98054    1.000
    Si729    Si       0.00175    0.28203    0.99017    1.000
    Si730    Si       0.05442    0.37558    0.94214    1.000
    N731     N        0.01429    0.38515    0.95693    1.000
    N732     N        0.99221    0.31727    0.96514    1.000
    N733     N        0.20047    0.39067    0.96830    1.000
    Si734    Si       0.16130    0.28460    0.98705    1.000
    N735     N        0.17473    0.32132    0.96689    1.000
    Si736    Si       0.20986    0.34749    0.96999    1.000
    N737     N        0.13705    0.37612    0.95039    1.000
    N738     N        0.12341    0.26528    0.97468    1.000
    N739     N        0.24061    0.33430    0.94191    1.000
    Si740    Si       0.99968    0.42540    0.95770    1.000
    N741     N        0.07909    0.40545    0.96132    1.000
    N742     N        0.08811    0.47659    0.97829    1.000
    Si743    Si       0.07378    0.44548    0.94610    1.000
    N744     N        0.02520    0.50363    0.97964    1.000
    Si745    Si       0.11250    0.38867    0.98252    1.000
    Si746    Si       0.20393    0.47283    0.98403    1.000
    N747     N        0.16302    0.47652    0.96929    1.000
    Si748    Si       0.12937    0.46417    0.99196    1.000
    Si749    Si       0.23079    0.41442    0.98574    1.000
    N750     N        0.23392    0.45058    0.96190    1.000
    N751     N        0.01645    0.55588    0.02110    1.000
    Si752    Si       0.05314    0.56927    0.03608    1.000
    N753     N        0.08454    0.54032    0.01359    1.000
    N754     N        0.06666    0.60312    0.01322    1.000
    Si755    Si       0.12160    0.52796    0.03110    1.000
    Si756    Si       0.19555    0.53913    0.02414    1.000
    N757     N        0.21637    0.57826    0.02026    1.000
    N758     N        0.15526    0.54622    0.01145    1.000
    Si759    Si       0.18950    0.60827    0.04170    1.000
    N760     N        0.16039    0.61495    0.01051    1.000
    N761     N        0.22172    0.50671    0.00303    1.000
    Si762    Si       0.06098    0.64533    0.01061    1.000
    N763     N        0.04598    0.66466    0.04856    1.000
    Si764    Si       0.06225    0.70604    0.04747    1.000
    N765     N        0.06376    0.71619    0.00224    1.000
    N766     N        0.10524    0.70011    0.05315    1.000
    N767     N        0.00079    0.75166    0.01391    1.000
    N768     N        0.22034    0.72773    0.00980    1.000
    Si769    Si       0.18659    0.71363    0.03250    1.000
    N770     N        0.15320    0.74369    0.02785    1.000
    N771     N        0.16149    0.68221    0.01483    1.000
    Si772    Si       0.12727    0.71174    0.01494    1.000
    N773     N        0.05334    0.57690    0.07873    1.000
    Si774    Si       0.01608    0.58165    0.10247    1.000
    N775     N        0.00601    0.62281    0.09968    1.000
    Si776    Si       0.08589    0.55446    0.10171    1.000
    N777     N        0.06210    0.51788    0.10065    1.000
    N778     N        0.11912    0.54453    0.07238    1.000
    Si779    Si       0.15818    0.53350    0.09106    1.000
    N780     N        0.17165    0.59210    0.07631    1.000
    N781     N        0.19583    0.52556    0.06624    1.000
    Si782    Si       0.23385    0.51080    0.08106    1.000
    Si783    Si       0.00203    0.75548    0.05925    1.000
    Si784    Si       0.00978    0.65825    0.07136    1.000
    N785     N        0.00673    0.68602    0.10637    1.000
    N786     N        0.03868    0.73399    0.06752    1.000
    N787     N        0.99985    0.75760    0.11350    1.000
    N788     N        0.16108    0.67400    0.10249    1.000
    Si789    Si       0.11964    0.69410    0.09426    1.000
    N790     N        0.21395    0.64169    0.06015    1.000
    Si791    Si       0.22603    0.74589    0.09357    1.000
    Si792    Si       0.20309    0.67231    0.08957    1.000
    N793     N        0.20702    0.71195    0.07201    1.000
    N794     N        0.13667    0.73473    0.10309    1.000
    N795     N        0.01976    0.55851    0.13915    1.000
    N796     N        0.09123    0.58306    0.13547    1.000
    Si797    Si       0.04107    0.52180    0.14010    1.000
    Si798    Si       0.08781    0.62576    0.14598    1.000
    N799     N        0.07667    0.52648    0.16716    1.000
    N800     N        0.99549    0.61414    0.16879    1.000
    N801     N        0.22251    0.58981    0.12373    1.000
    N802     N        0.16142    0.55065    0.12976    1.000
    N803     N        0.16537    0.61706    0.14930    1.000
    Si804    Si       0.17819    0.58986    0.11868    1.000
    Si805    Si       0.15510    0.53094    0.16999    1.000
    N806     N        0.23382    0.51645    0.12408    1.000
    Si807    Si       0.24090    0.62501    0.14111    1.000
    Si808    Si       0.00735    0.64887    0.13670    1.000
    N809     N        0.05105    0.64824    0.14298    1.000
    Si810    Si       0.07315    0.68482    0.14956    1.000
    N811     N        0.10985    0.65968    0.13254    1.000
    N812     N        0.03652    0.72484    0.16133    1.000
    Si813    Si       0.10848    0.75545    0.12959    1.000
    N814     N        0.07925    0.71041    0.11519    1.000
    N815     N        0.22708    0.66458    0.12603    1.000
    Si816    Si       0.15269    0.66162    0.14215    1.000
    Si817    Si       0.04395    0.73804    0.11555    1.000
    N818     N        0.05187    0.57769    0.19909    1.000
    N819     N        0.10347    0.62176    0.18775    1.000
    Si820    Si       0.08994    0.56699    0.17676    1.000
    Si821    Si       0.01507    0.57610    0.17903    1.000
    Si822    Si       0.14514    0.60571    0.18959    1.000
    N823     N        0.13345    0.56306    0.18895    1.000
    N824     N        0.16945    0.62267    0.22203    1.000
    N825     N        0.19385    0.51903    0.18412    1.000
    Si826    Si       0.19863    0.52535    0.22750    1.000
    N827     N        0.21523    0.56767    0.22717    1.000
    Si828    Si       0.17748    0.71676    0.19407    1.000
    Si829    Si       0.08458    0.65001    0.21536    1.000
    Si830    Si       0.06758    0.72853    0.19377    1.000
    N831     N        0.07655    0.68563    0.19338    1.000
    Si832    Si       0.00041    0.71443    0.18340    1.000
    N833     N        0.01262    0.70966    0.22472    1.000
    N834     N        0.21625    0.72016    0.17784    1.000
    N835     N        0.09882    0.75108    0.17316    1.000
    Si836    Si       0.15601    0.66618    0.22307    1.000
    N837     N        0.16278    0.75797    0.18671    1.000
    N838     N        0.15584    0.68142    0.17983    1.000
    N839     N        0.08908    0.56612    0.25599    1.000
    Si840    Si       0.09221    0.52034    0.25173    1.000
    N841     N        0.01910    0.56929    0.26181    1.000
    Si842    Si       0.01761    0.52990    0.28510    1.000
    Si843    Si       0.05489    0.58500    0.24150    1.000
    N844     N        0.05622    0.62980    0.24157    1.000
    N845     N        0.05027    0.51159    0.25314    1.000
    Si846    Si       0.19991    0.60414    0.24550    1.000
    N847     N        0.23464    0.63131    0.24725    1.000
    N848     N        0.11842    0.52248    0.28787    1.000
    Si849    Si       0.16049    0.51068    0.28661    1.000
    Si850    Si       0.15938    0.72657    0.26420    1.000
    Si851    Si       0.04167    0.63957    0.28084    1.000
    Si852    Si       0.10480    0.68127    0.28045    1.000
    Si853    Si       0.09150    0.75124    0.26469    1.000
    Si854    Si       0.02502    0.74446    0.24914    1.000
    N855     N        0.07891    0.71621    0.28600    1.000
    N856     N        0.01017    0.67137    0.28901    1.000
    N857     N        0.18972    0.75401    0.27804    1.000
    N858     N        0.11567    0.66553    0.24136    1.000
    N859     N        0.17912    0.70025    0.23517    1.000
    N860     N        0.12830    0.74645    0.24322    1.000
    N861     N        0.19947    0.53041    0.28858    1.000
    N862     N        0.06506    0.74791    0.23170    1.000
    N863     N        0.06773    0.55946    0.32671    1.000
    N864     N        0.02547    0.61235    0.31085    1.000
    Si865    Si       0.04814    0.59508    0.34238    1.000
    Si866    Si       0.10136    0.56298    0.29988    1.000
    Si867    Si       0.15352    0.67901    0.33314    1.000
    Si868    Si       0.20867    0.56069    0.31864    1.000
    Si869    Si       0.16430    0.60225    0.32168    1.000
    N870     N        0.12578    0.59542    0.30915    1.000
    N871     N        0.17817    0.56820    0.34824    1.000
    Si872    Si       0.22014    0.75044    0.30969    1.000
    N873     N        0.04169    0.69197    0.34498    1.000
    N874     N        0.07725    0.65438    0.30104    1.000
    Si875    Si       0.03960    0.70549    0.30338    1.000
    Si876    Si       0.07618    0.66169    0.34481    1.000
    N877     N        0.14223    0.69698    0.29537    1.000
    N878     N        0.16760    0.63883    0.34549    1.000
    N879     N        0.19258    0.59638    0.29037    1.000
    N880     N        0.01706    0.74026    0.29314    1.000
    N881     N        0.02513    0.57998    0.37725    1.000
    Si882    Si       0.01025    0.54082    0.38603    1.000
    Si883    Si       0.07711    0.53483    0.36228    1.000
    N884     N        0.08499    0.56313    0.39832    1.000
    Si885    Si       0.05947    0.60114    0.40287    1.000
    N886     N        0.07127    0.62326    0.36344    1.000
    N887     N        0.03996    0.51136    0.36994    1.000
    Si888    Si       0.17283    0.55661    0.38998    1.000
    N889     N        0.21437    0.54760    0.40105    1.000
    N890     N        0.14897    0.59108    0.40502    1.000
    Si891    Si       0.23441    0.52068    0.37417    1.000
    Si892    Si       0.16456    0.62949    0.39162    1.000
    N893     N        0.00598    0.74796    0.36357    1.000
    Si894    Si       0.01376    0.70630    0.37346    1.000
    N895     N        0.11412    0.68340    0.35219    1.000
    Si896    Si       0.20937    0.65623    0.35364    1.000
    N897     N        0.20730    0.64039    0.39268    1.000
    Si898    Si       0.12446    0.69491    0.39118    1.000
    N899     N        0.15367    0.72588    0.39349    1.000
    Si900    Si       0.19429    0.72849    0.37926    1.000
    N901     N        0.20364    0.75954    0.34963    1.000
    N902     N        0.19076    0.69649    0.34884    1.000
    N903     N        0.01730    0.53166    0.42849    1.000
    N904     N        0.08842    0.61077    0.43820    1.000
    Si905    Si       0.99742    0.56062    0.45301    1.000
    N906     N        0.03101    0.62866    0.42858    1.000
    Si907    Si       0.05280    0.61394    0.46740    1.000
    Si908    Si       0.11326    0.57597    0.42828    1.000
    Si909    Si       0.16112    0.53429    0.45586    1.000
    Si910    Si       0.22715    0.56445    0.43978    1.000
    N911     N        0.18869    0.56608    0.46007    1.000
    N912     N        0.12389    0.55628    0.46575    1.000
    N913     N        0.15098    0.52573    0.41385    1.000
    N914     N        0.02527    0.69872    0.41600    1.000
    Si915    Si       0.05567    0.72819    0.42925    1.000
    Si916    Si       0.01040    0.66485    0.43891    1.000
    N917     N        0.09623    0.71893    0.41301    1.000
    N918     N        0.21667    0.73363    0.41507    1.000
    Si919    Si       0.11939    0.64291    0.44872    1.000
    Si920    Si       0.12831    0.74561    0.42491    1.000
    N921     N        0.13725    0.65874    0.41146    1.000
    Si922    Si       0.23586    0.64176    0.42613    1.000
    Si923    Si       0.19718    0.74179    0.45233    1.000
    N924     N        0.15401    0.73358    0.45907    1.000
    N925     N        0.21797    0.66467    0.45822    1.000
    Si926    Si       0.00506    0.57509    0.51541    1.000
    N927     N        0.02639    0.58326    0.47639    1.000
    N928     N        0.07270    0.63351    0.50225    1.000
    Si929    Si       0.11608    0.55436    0.50903    1.000
    N930     N        0.20245    0.61952    0.50839    1.000
    Si931    Si       0.17227    0.59209    0.49134    1.000
    N932     N        0.15584    0.56701    0.52094    1.000
    N933     N        0.11802    0.51336    0.51917    1.000
    N934     N        0.15168    0.62628    0.47247    1.000
    Si935    Si       0.03970    0.75358    0.49618    1.000
    Si936    Si       0.06961    0.67825    0.49511    1.000
    N937     N        0.02513    0.66576    0.48176    1.000
    Si938    Si       0.00043    0.65444    0.51390    1.000
    N939     N        0.10958    0.67929    0.47380    1.000
    N940     N        0.05886    0.72314    0.47382    1.000
    Si941    Si       0.18460    0.65253    0.48528    1.000
    N942     N        0.11740    0.73606    0.51758    1.000
    Si943    Si       0.13832    0.70757    0.49153    1.000
    N944     N        0.17049    0.68505    0.51022    1.000
    N945     N        0.22158    0.72372    0.48470    1.000
    N946     N        0.98906    0.61516    0.52321    1.000
    N947     N        0.01976    0.55760    0.55430    1.000
    Si948    Si       0.06231    0.54935    0.56205    1.000
    Si949    Si       0.08528    0.61665    0.53940    1.000
    N950     N        0.05682    0.62782    0.57131    1.000
    N951     N        0.08481    0.57316    0.53236    1.000
    Si952    Si       0.17521    0.55061    0.55708    1.000
    Si953    Si       0.21113    0.61913    0.55084    1.000
    N954     N        0.20805    0.57910    0.56489    1.000
    N955     N        0.12459    0.62834    0.55575    1.000
    N956     N        0.18480    0.50896    0.54963    1.000
    N957     N        0.07096    0.68722    0.53768    1.000
    Si958    Si       0.08680    0.72467    0.54631    1.000
    Si959    Si       0.04697    0.66904    0.57045    1.000
    N960     N        0.00530    0.67141    0.55539    1.000
    N961     N        0.05558    0.75287    0.53795    1.000
    N962     N        0.10711    0.73529    0.58501    1.000
    N963     N        0.17579    0.72228    0.57747    1.000
    Si964    Si       0.19130    0.69031    0.54826    1.000
    N965     N        0.19005    0.65298    0.56858    1.000
    Si966    Si       0.21311    0.74870    0.57786    1.000
    N967     N        0.23289    0.70426    0.54769    1.000
    N968     N        0.01069    0.59725    0.61516    1.000
    Si969    Si       0.05492    0.60544    0.60725    1.000
    N970     N        0.00904    0.52694    0.61577    1.000
    N971     N        0.07627    0.56450    0.59973    1.000
    Si972    Si       0.09240    0.54905    0.63676    1.000
    Si973    Si       0.99641    0.56112    0.59113    1.000
    N974     N        0.08061    0.62863    0.63417    1.000
    N975     N        0.11760    0.51307    0.63687    1.000
    Si976    Si       0.15731    0.57224    0.62839    1.000
    N977     N        0.16415    0.61513    0.62132    1.000
    N978     N        0.14988    0.54953    0.59214    1.000
    Si979    Si       0.21136    0.51604    0.64204    1.000
    N980     N        0.05466    0.68661    0.60732    1.000
    Si981    Si       0.08884    0.66986    0.62843    1.000
    Si982    Si       0.02030    0.69989    0.63293    1.000
    N983     N        0.99810    0.66357    0.63843    1.000
    Si984    Si       0.14027    0.71580    0.60350    1.000
    Si985    Si       0.15099    0.64276    0.58876    1.000
    N986     N        0.12562    0.67391    0.60608    1.000
    N987     N        0.15274    0.72838    0.64226    1.000
    Si988    Si       0.23780    0.75671    0.63515    1.000
    N989     N        0.05930    0.54732    0.66628    1.000
    Si990    Si       0.10171    0.61275    0.66816    1.000
    Si991    Si       0.03506    0.51516    0.64982    1.000
    N992     N        0.12136    0.57706    0.65462    1.000
    Si993    Si       0.19182    0.56464    0.69274    1.000
    N994     N        0.20046    0.60656    0.68806    1.000
    N995     N        0.18984    0.55444    0.64909    1.000
    Si996    Si       0.17337    0.63014    0.65995    1.000
    Si997    Si       0.07298    0.72506    0.67599    1.000
    N998     N        0.03114    0.72464    0.66878    1.000
    N999     N        0.09537    0.68866    0.66796    1.000
    Si1000   Si       0.18153    0.70657    0.66567    1.000
    N1001    N        0.13564    0.63760    0.67936    1.000
    N1002    N        0.19730    0.66607    0.65566    1.000
    Si1003   Si       0.23758    0.68026    0.64974    1.000
    Si1004   Si       0.12454    0.67607    0.69706    1.000
    N1005    N        0.22244    0.72361    0.65911    1.000
    N1006    N        0.09063    0.54411    0.72977    1.000
    N1007    N        0.02171    0.56356    0.71874    1.000
    Si1008   Si       0.01087    0.53499    0.75045    1.000
    N1009    N        0.01455    0.61984    0.75055    1.000
    Si1010   Si       0.99279    0.59429    0.72549    1.000
    N1011    N        0.07585    0.61008    0.70295    1.000
    Si1012   Si       0.06368    0.56717    0.70409    1.000
    Si1013   Si       0.12406    0.51706    0.71548    1.000
    N1014    N        0.22089    0.55049    0.72353    1.000
    Si1015   Si       0.17711    0.52542    0.74940    1.000
    N1016    N        0.15941    0.54243    0.71146    1.000
    Si1017   Si       0.23203    0.58104    0.75210    1.000
    Si1018   Si       0.23510    0.51110    0.71662    1.000
    N1019    N        0.14996    0.75622    0.74738    1.000
    Si1020   Si       0.07298    0.63907    0.73774    1.000
    N1021    N        0.04866    0.67578    0.74385    1.000
    N1022    N        0.08455    0.73343    0.71733    1.000
    Si1023   Si       0.00734    0.66370    0.74896    1.000
    Si1024   Si       0.08308    0.70385    0.75166    1.000
    N1025    N        0.10906    0.66780    0.73660    1.000
    N1026    N        0.21864    0.74283    0.73570    1.000
    N1027    N        0.16138    0.70234    0.70317    1.000
    Si1028   Si       0.17895    0.72344    0.73936    1.000
    N1029    N        0.08407    0.52293    0.80032    1.000
    N1030    N        0.01458    0.56078    0.78547    1.000
    Si1031   Si       0.03497    0.59901    0.78258    1.000
    N1032    N        0.07479    0.61465    0.77442    1.000
    Si1033   Si       0.10610    0.54175    0.76941    1.000
    Si1034   Si       0.11010    0.61149    0.79716    1.000
    N1035    N        0.12911    0.57438    0.78721    1.000
    N1036    N        0.19175    0.54207    0.78600    1.000
    Si1037   Si       0.16196    0.55991    0.81080    1.000
    N1038    N        0.21356    0.61701    0.76785    1.000
    Si1039   Si       0.23167    0.52667    0.80008    1.000
    Si1040   Si       0.18548    0.62927    0.79962    1.000
    N1041    N        0.00092    0.68452    0.78550    1.000
    Si1042   Si       0.03472    0.70575    0.79858    1.000
    N1043    N        0.05314    0.73786    0.77562    1.000
    N1044    N        0.11359    0.71036    0.78290    1.000
    N1045    N        0.05977    0.67620    0.81735    1.000
    Si1046   Si       0.19069    0.70009    0.81770    1.000
    Si1047   Si       0.12523    0.73786    0.81570    1.000
    Si1048   Si       0.13855    0.67706    0.77034    1.000
    N1049    N        0.17678    0.69788    0.77495    1.000
    N1050    N        0.14463    0.63948    0.79021    1.000
    N1051    N        0.09577    0.61656    0.83779    1.000
    N1052    N        0.01848    0.52589    0.85028    1.000
    Si1053   Si       0.10358    0.52571    0.83685    1.000
    Si1054   Si       0.00538    0.56630    0.82998    1.000
    N1055    N        0.08577    0.55336    0.86554    1.000
    Si1056   Si       0.09921    0.59558    0.87548    1.000
    N1057    N        0.02646    0.60656    0.82570    1.000
    Si1058   Si       0.22804    0.64012    0.85627    1.000
    N1059    N        0.14545    0.53300    0.83983    1.000
    N1060    N        0.17933    0.59415    0.82895    1.000
    Si1061   Si       0.18151    0.59482    0.87361    1.000
    N1062    N        0.15468    0.71641    0.84114    1.000
    Si1063   Si       0.23762    0.56075    0.87118    1.000
    Si1064   Si       0.05703    0.63638    0.83444    1.000
    N1065    N        0.08739    0.74496    0.84010    1.000
    N1066    N        0.02963    0.72728    0.83655    1.000
    Si1067   Si       0.06809    0.70369    0.85053    1.000
    N1068    N        0.04222    0.64741    0.87446    1.000
    N1069    N        0.09878    0.68399    0.87514    1.000
    N1070    N        0.21994    0.73339    0.82659    1.000
    N1071    N        0.20159    0.65932    0.82814    1.000
    N1072    N        0.08603    0.61644    0.91334    1.000
    Si1073   Si       0.05146    0.59447    0.92644    1.000
    N1074    N        0.02061    0.62455    0.92855    1.000
    N1075    N        0.03120    0.57936    0.88957    1.000
    Si1076   Si       0.18629    0.65055    0.92246    1.000
    Si1077   Si       0.04566    0.53948    0.88110    1.000
    N1078    N        0.17081    0.68527    0.90001    1.000
    N1079    N        0.14155    0.59829    0.89235    1.000
    Si1080   Si       0.20975    0.54409    0.92735    1.000
    Si1081   Si       0.12589    0.61250    0.93165    1.000
    N1082    N        0.19437    0.55472    0.88631    1.000
    N1083    N        0.20897    0.62296    0.89553    1.000
    N1084    N        0.13938    0.51017    0.91121    1.000
    N1085    N        0.99280    0.75239    0.88881    1.000
    Si1086   Si       0.07477    0.65860    0.89917    1.000
    N1087    N        0.12544    0.74003    0.90078    1.000
    N1088    N        0.23286    0.72965    0.89422    1.000
    Si1089   Si       0.20099    0.71288    0.91801    1.000
    Si1090   Si       0.02139    0.76179    0.91922    1.000
    N1091    N        0.06287    0.67927    0.93582    1.000
    Si1092   Si       0.01193    0.61844    0.88604    1.000
    Si1093   Si       0.13785    0.70380    0.88053    1.000
    Si1094   Si       0.16489    0.52364    0.87745    1.000
    Si1095   Si       0.01754    0.54762    0.97946    1.000
    N1096    N        0.04934    0.56677    0.95832    1.000
    Si1097   Si       0.08438    0.57480    0.98336    1.000
    N1098    N        0.11993    0.58353    0.96254    1.000
    N1099    N        0.18880    0.56523    0.95605    1.000
    Si1100   Si       0.15938    0.57918    0.98429    1.000
    N1101    N        0.11924    0.72046    0.97169    1.000
    N1102    N        0.01566    0.73354    0.95184    1.000
    Si1103   Si       0.08564    0.69409    0.96986    1.000
    N1104    N        0.02465    0.65352    0.98636    1.000
    Si1105   Si       0.03530    0.74573    0.98770    1.000
    Si1106   Si       0.02168    0.66441    0.94354    1.000
    N1107    N        0.10076    0.65983    0.99438    1.000
    N1108    N        0.18178    0.74313    0.94339    1.000
    Si1109   Si       0.14472    0.64944    0.99091    1.000
    Si1110   Si       0.21129    0.75336    0.97703    1.000
    N1111    N        0.15461    0.63975    0.94942    1.000
    N1112    N        0.21570    0.67865    0.94090    1.000
    Si1113   Si       0.13835    0.74765    0.94138    1.000
    N1114    N        0.12667    0.87149    0.04468    1.000
    Si1115   Si       0.16150    0.78589    0.02346    1.000
    N1116    N        0.12293    0.80191    0.01240    1.000
    N1117    N        0.22376    0.83840    0.04245    1.000
    Si1118   Si       0.12434    0.84606    0.00917    1.000
    Si1119   Si       0.23257    0.81678    0.00558    1.000
    Si1120   Si       0.22206    0.88377    0.04744    1.000
    N1121    N        0.19774    0.79131    0.99622    1.000
    N1122    N        0.08989    0.92890    0.01858    1.000
    Si1123   Si       0.04695    0.92492    0.01666    1.000
    Si1124   Si       0.99687    0.98716    0.99973    1.000
    N1125    N        0.02860    0.92268    0.05617    1.000
    Si1126   Si       0.20388    0.00824    0.03331    1.000
    Si1127   Si       0.12091    0.91565    0.04493    1.000
    N1128    N        0.11642    0.99403    0.01867    1.000
    Si1129   Si       0.18119    0.93858    0.00845    1.000
    N1130    N        0.20925    0.97288    0.00969    1.000
    N1131    N        0.20266    0.90194    0.01064    1.000
    N1132    N        0.15555    0.94213    0.04699    1.000
    N1133    N        0.07774    0.84335    0.08299    1.000
    N1134    N        0.99564    0.79774    0.06519    1.000
    Si1135   Si       0.11043    0.86877    0.08412    1.000
    Si1136   Si       0.16074    0.76945    0.09476    1.000
    Si1137   Si       0.21452    0.81039    0.07621    1.000
    N1138    N        0.17447    0.79739    0.06399    1.000
    Si1139   Si       0.98909    0.92589    0.07276    1.000
    N1140    N        0.11384    0.97802    0.09256    1.000
    N1141    N        0.05218    0.97972    0.07954    1.000
    Si1142   Si       0.01336    0.99658    0.07433    1.000
    Si1143   Si       0.05730    0.93496    0.08432    1.000
    Si1144   Si       0.07944    0.00103    0.10631    1.000
    N1145    N        0.10104    0.91393    0.08405    1.000
    Si1146   Si       0.99005    0.80100    0.10724    1.000
    N1147    N        0.17396    0.00492    0.06682    1.000
    N1148    N        0.22597    0.95641    0.07691    1.000
    N1149    N        0.19640    0.89234    0.07973    1.000
    Si1150   Si       0.18753    0.93743    0.07788    1.000
    Si1151   Si       0.22846    0.98372    0.10965    1.000
    Si1152   Si       0.13681    0.98241    0.05536    1.000
    N1153    N        0.09161    0.82806    0.15112    1.000
    Si1154   Si       0.00595    0.83696    0.16217    1.000
    N1155    N        0.02437    0.81946    0.12549    1.000
    N1156    N        0.01642    0.87961    0.16169    1.000
    Si1157   Si       0.06626    0.81778    0.11590    1.000
    N1158    N        0.07262    0.77436    0.11273    1.000
    N1159    N        0.19813    0.76981    0.11740    1.000
    Si1160   Si       0.13326    0.82994    0.14405    1.000
    Si1161   Si       0.18122    0.78302    0.15525    1.000
    N1162    N        0.13969    0.78774    0.12960    1.000
    N1163    N        0.14291    0.85940    0.11374    1.000
    N1164    N        0.22595    0.95754    0.14371    1.000
    Si1165   Si       0.18641    0.87016    0.11429    1.000
    N1166    N        0.10646    0.93468    0.15309    1.000
    Si1167   Si       0.00224    0.91041    0.13675    1.000
    Si1168   Si       0.06470    0.94801    0.15742    1.000
    N1169    N        0.04073    0.93155    0.12544    1.000
    N1170    N        0.06976    0.99094    0.14753    1.000
    Si1171   Si       0.18920    0.93738    0.14920    1.000
    N1172    N        0.19801    0.89524    0.14761    1.000
    N1173    N        0.21691    0.83601    0.11282    1.000
    Si1174   Si       0.12269    0.94093    0.11368    1.000
    N1175    N        0.16412    0.94171    0.11409    1.000
    Si1176   Si       0.07446    0.82857    0.19189    1.000
    N1177    N        0.07282    0.87092    0.20308    1.000
    N1178    N        0.03310    0.81710    0.19110    1.000
    N1179    N        0.10127    0.80615    0.21872    1.000
    Si1180   Si       0.01169    0.81421    0.22788    1.000
    N1181    N        0.00564    0.88567    0.22662    1.000
    Si1182   Si       0.20536    0.82746    0.19708    1.000
    Si1183   Si       0.12446    0.76901    0.20633    1.000
    N1184    N        0.19971    0.87971    0.21915    1.000
    N1185    N        0.22126    0.79123    0.17639    1.000
    Si1186   Si       0.03571    0.89413    0.19740    1.000
    N1187    N        0.04988    0.93533    0.19485    1.000
    N1188    N        0.03982    0.99732    0.21603    1.000
    N1189    N        0.11222    0.98582    0.20079    1.000
    Si1190   Si       0.07454    0.00612    0.18782    1.000
    Si1191   Si       0.12622    0.94346    0.19154    1.000
    N1192    N        0.23750    0.97295    0.20787    1.000
    Si1193   Si       0.19305    0.97097    0.21933    1.000
    N1194    N        0.17059    0.95051    0.18777    1.000
    Si1195   Si       0.22112    0.88724    0.18254    1.000
    N1196    N        0.12640    0.91447    0.22444    1.000
    N1197    N        0.17015    0.82792    0.17026    1.000
    N1198    N        0.04091    0.82455    0.25995    1.000
    Si1199   Si       0.08441    0.82055    0.25530    1.000
    N1200    N        0.10197    0.85912    0.26229    1.000
    Si1201   Si       0.00637    0.83561    0.28589    1.000
    N1202    N        0.09246    0.78904    0.28428    1.000
    N1203    N        0.99724    0.77458    0.23698    1.000
    Si1204   Si       0.21620    0.78405    0.25947    1.000
    Si1205   Si       0.20055    0.85824    0.25802    1.000
    N1206    N        0.20157    0.81920    0.23863    1.000
    N1207    N        0.16442    0.87756    0.27015    1.000
    Si1208   Si       0.08343    0.00654    0.27727    1.000
    Si1209   Si       0.01561    0.90451    0.26535    1.000
    N1210    N        0.05950    0.90936    0.25988    1.000
    N1211    N        0.07468    0.96634    0.26299    1.000
    N1212    N        0.00710    0.94629    0.25138    1.000
    Si1213   Si       0.09166    0.89240    0.23606    1.000
    Si1214   Si       0.04459    0.95750    0.23308    1.000
    N1215    N        0.19326    0.94060    0.25044    1.000
    Si1216   Si       0.16869    0.90874    0.23812    1.000
    Si1217   Si       0.23166    0.93626    0.27216    1.000
    Si1218   Si       0.10388    0.80242    0.32483    1.000
    N1219    N        0.99911    0.80619    0.31860    1.000
    Si1220   Si       0.99501    0.76274    0.32312    1.000
    N1221    N        0.01362    0.87569    0.29810    1.000
    N1222    N        0.12256    0.84217    0.32279    1.000
    Si1223   Si       0.22384    0.82356    0.32426    1.000
    N1224    N        0.22183    0.86046    0.29721    1.000
    N1225    N        0.13782    0.77875    0.34111    1.000
    N1226    N        0.18752    0.82843    0.34594    1.000
    N1227    N        0.23598    0.79095    0.29840    1.000
    Si1228   Si       0.12808    0.87218    0.29368    1.000
    Si1229   Si       0.00079    0.89083    0.33814    1.000
    N1230    N        0.05772    0.93974    0.33206    1.000
    N1231    N        0.09099    0.99501    0.31834    1.000
    Si1232   Si       0.05472    0.98216    0.33928    1.000
    N1233    N        0.01618    0.99419    0.32484    1.000
    N1234    N        0.11156    0.91065    0.30668    1.000
    Si1235   Si       0.07664    0.93392    0.29302    1.000
    N1236    N        0.16418    0.89136    0.33910    1.000
    Si1237   Si       0.20518    0.88872    0.32837    1.000
    Si1238   Si       0.13000    0.99819    0.33993    1.000
    N1239    N        0.22034    0.92771    0.31265    1.000
    Si1240   Si       0.13074    0.91765    0.34509    1.000
    N1241    N        0.22378    0.99129    0.33756    1.000
    Si1242   Si       0.22947    0.94901    0.34865    1.000
    N1243    N        0.00794    0.81719    0.38848    1.000
    Si1244   Si       0.00671    0.77356    0.39753    1.000
    Si1245   Si       0.02713    0.85543    0.39906    1.000
    Si1246   Si       0.07709    0.79932    0.40036    1.000
    N1247    N        0.07652    0.79932    0.35681    1.000
    N1248    N        0.03240    0.88525    0.36669    1.000
    N1249    N        0.06718    0.84334    0.41025    1.000
    N1250    N        0.13452    0.84750    0.39200    1.000
    Si1251   Si       0.17319    0.78904    0.36035    1.000
    N1252    N        0.18166    0.79657    0.40240    1.000
    Si1253   Si       0.15233    0.85182    0.35301    1.000
    Si1254   Si       0.05756    0.92030    0.37114    1.000
    N1255    N        0.09995    0.90435    0.37743    1.000
    N1256    N        0.05539    0.98782    0.38139    1.000
    Si1257   Si       0.02156    0.97499    0.40860    1.000
    Si1258   Si       0.22054    0.91006    0.40244    1.000
    N1259    N        0.14105    0.95791    0.35509    1.000
    N1260    N        0.23093    0.89075    0.36382    1.000
    N1261    N        0.20340    0.94635    0.38342    1.000
    Si1262   Si       0.16492    0.96763    0.39133    1.000
    Si1263   Si       0.10147    0.87270    0.40829    1.000
    N1264    N        0.00335    0.87356    0.43133    1.000
    Si1265   Si       0.00004    0.78614    0.46159    1.000
    N1266    N        0.04766    0.76787    0.41371    1.000
    N1267    N        0.00509    0.00953    0.43315    1.000
    N1268    N        0.11404    0.78770    0.42070    1.000
    Si1269   Si       0.19475    0.86462    0.45266    1.000
    N1270    N        0.15894    0.83953    0.45321    1.000
    Si1271   Si       0.22188    0.80301    0.42434    1.000
    N1272    N        0.22754    0.84544    0.43337    1.000
    Si1273   Si       0.14619    0.81641    0.42038    1.000
    N1274    N        0.21138    0.78123    0.46148    1.000
    N1275    N        0.10201    0.89355    0.44453    1.000
    Si1276   Si       0.02246    0.91158    0.44418    1.000
    N1277    N        0.04080    0.93398    0.41001    1.000
    N1278    N        0.14817    0.95953    0.43059    1.000
    Si1279   Si       0.13165    0.98990    0.45771    1.000
    Si1280   Si       0.17572    0.93548    0.45379    1.000
    N1281    N        0.18857    0.90169    0.43068    1.000
    N1282    N        0.20899    0.96310    0.46029    1.000
    Si1283   Si       0.06579    0.81712    0.50137    1.000
    N1284    N        0.06805    0.85887    0.49023    1.000
    N1285    N        0.10554    0.80191    0.49154    1.000
    N1286    N        0.03840    0.79602    0.47849    1.000
    N1287    N        0.99786    0.75464    0.49627    1.000
    Si1288   Si       0.14250    0.82848    0.49070    1.000
    Si1289   Si       0.20773    0.79142    0.50437    1.000
    N1290    N        0.16604    0.79614    0.50858    1.000
    N1291    N        0.20426    0.87517    0.49346    1.000
    Si1292   Si       0.12907    0.77662    0.52044    1.000
    N1293    N        0.14500    0.85880    0.52083    1.000
    Si1294   Si       0.23833    0.86268    0.51676    1.000
    Si1295   Si       0.08158    0.89805    0.48191    1.000
    N1296    N        0.04369    0.91698    0.48049    1.000
    Si1297   Si       0.06848    0.99531    0.50794    1.000
    N1298    N        0.09984    0.97430    0.48359    1.000
    Si1299   Si       0.03317    0.92424    0.52242    1.000
    N1300    N        0.09636    0.91597    0.52212    1.000
    Si1301   Si       0.16798    0.89370    0.51457    1.000
    N1302    N        0.15535    0.92750    0.49247    1.000
    Si1303   Si       0.12324    0.94996    0.51282    1.000
    Si1304   Si       0.20002    0.99249    0.49012    1.000
    Si1305   Si       0.03669    0.78161    0.56386    1.000
    N1306    N        0.09474    0.86026    0.56991    1.000
    N1307    N        0.04605    0.81820    0.54188    1.000
    N1308    N        0.99894    0.77872    0.58274    1.000
    Si1309   Si       0.06280    0.83376    0.58060    1.000
    N1310    N        0.12052    0.80038    0.55601    1.000
    Si1311   Si       0.19485    0.87520    0.57510    1.000
    Si1312   Si       0.13343    0.84203    0.55880    1.000
    N1313    N        0.21753    0.76493    0.53894    1.000
    N1314    N        0.23532    0.86203    0.56034    1.000
    N1315    N        0.16859    0.83979    0.58287    1.000
    Si1316   Si       0.01796    0.98478    0.56186    1.000
    N1317    N        0.04249    0.90173    0.55901    1.000
    Si1318   Si       0.08626    0.90211    0.56340    1.000
    N1319    N        0.04109    0.96712    0.52801    1.000
    N1320    N        0.18107    0.90931    0.55376    1.000
    N1321    N        0.14161    0.97164    0.54430    1.000
    Si1322   Si       0.18028    0.95449    0.55609    1.000
    N1323    N        0.21128    0.97159    0.52765    1.000
    Si1324   Si       0.12982    0.01121    0.56149    1.000
    N1325    N        0.06517    0.79125    0.59636    1.000
    Si1326   Si       0.99781    0.81137    0.61331    1.000
    N1327    N        0.02342    0.84439    0.59903    1.000
    Si1328   Si       0.06257    0.79189    0.63918    1.000
    Si1329   Si       0.10636    0.77880    0.58926    1.000
    Si1330   Si       0.21744    0.93310    0.61281    1.000
    N1331    N        0.18568    0.96075    0.59816    1.000
    Si1332   Si       0.17675    0.80925    0.61282    1.000
    N1333    N        0.13692    0.79111    0.61852    1.000
    N1334    N        0.20449    0.77600    0.61233    1.000
    Si1335   Si       0.21877    0.86021    0.64198    1.000
    N1336    N        0.20876    0.89085    0.61300    1.000
    Si1337   Si       0.03280    0.94518    0.63452    1.000
    N1338    N        0.04199    0.90274    0.62706    1.000
    N1339    N        0.02585    0.97453    0.60332    1.000
    N1340    N        0.10076    0.92389    0.59678    1.000
    Si1341   Si       0.01843    0.88795    0.59248    1.000
    Si1342   Si       0.09908    0.92936    0.63855    1.000
    N1343    N        0.13115    0.00720    0.60412    1.000
    Si1344   Si       0.15639    0.98053    0.62762    1.000
    N1345    N        0.03528    0.86802    0.68871    1.000
    Si1346   Si       0.06052    0.87213    0.65206    1.000
    N1347    N        0.08613    0.75965    0.65323    1.000
    Si1348   Si       0.00738    0.76188    0.67724    1.000
    Si1349   Si       0.11553    0.87783    0.69947    1.000
    Si1350   Si       0.12932    0.76421    0.65126    1.000
    Si1351   Si       0.16812    0.81738    0.68411    1.000
    N1352    N        0.13875    0.78586    0.68732    1.000
    N1353    N        0.18919    0.83029    0.64877    1.000
    N1354    N        0.22429    0.88173    0.68157    1.000
    N1355    N        0.23407    0.95462    0.64827    1.000
    N1356    N        0.99379    0.94613    0.65373    1.000
    N1357    N        0.07002    0.95812    0.65567    1.000
    N1358    N        0.09855    0.89101    0.66003    1.000
    Si1359   Si       0.06979    0.99769    0.67464    1.000
    Si1360   Si       0.14293    0.94803    0.69566    1.000
    N1361    N        0.17993    0.99824    0.65979    1.000
    N1362    N        0.13456    0.95175    0.65393    1.000
    N1363    N        0.18436    0.93577    0.69424    1.000
    Si1364   Si       0.20718    0.96806    0.67844    1.000
    N1365    N        0.07539    0.83236    0.64484    1.000
    N1366    N        0.01856    0.79024    0.64637    1.000
    Si1367   Si       0.04772    0.87064    0.72933    1.000
    N1368    N        0.08982    0.85680    0.72608    1.000
    N1369    N        0.02033    0.77845    0.71762    1.000
    N1370    N        0.08785    0.79016    0.74466    1.000
    Si1371   Si       0.99679    0.81150    0.73588    1.000
    N1372    N        0.02795    0.84026    0.75276    1.000
    Si1373   Si       0.05462    0.76199    0.73779    1.000
    Si1374   Si       0.10014    0.82828    0.75901    1.000
    Si1375   Si       0.11700    0.76725    0.72073    1.000
    Si1376   Si       0.21998    0.78610    0.74172    1.000
    N1377    N        0.19735    0.81452    0.71629    1.000
    Si1378   Si       0.17456    0.84565    0.73936    1.000
    N1379    N        0.19438    0.88254    0.74545    1.000
    N1380    N        0.12092    0.91856    0.71771    1.000
    Si1381   Si       0.10721    0.99531    0.74423    1.000
    N1382    N        0.07249    0.99416    0.71801    1.000
    N1383    N        0.00568    0.96487    0.72062    1.000
    N1384    N        0.05490    0.91255    0.74366    1.000
    Si1385   Si       0.01398    0.93073    0.74457    1.000
    Si1386   Si       0.02966    0.99961    0.73022    1.000
    Si1387   Si       0.09702    0.92171    0.75504    1.000
    N1388    N        0.14434    0.98309    0.72300    1.000
    N1389    N        0.21958    0.98518    0.71949    1.000
    Si1390   Si       0.18257    0.98359    0.74282    1.000
    N1391    N        0.15639    0.85995    0.70042    1.000
    Si1392   Si       0.18731    0.89340    0.70253    1.000
    Si1393   Si       0.04021    0.83556    0.79626    1.000
    N1394    N        0.08323    0.83578    0.79733    1.000
    N1395    N        0.02515    0.79522    0.80651    1.000
    Si1396   Si       0.11229    0.86576    0.81522    1.000
    Si1397   Si       0.05334    0.76140    0.81660    1.000
    N1398    N        0.20050    0.78778    0.78268    1.000
    Si1399   Si       0.15749    0.78656    0.77561    1.000
    N1400    N        0.13587    0.77935    0.81058    1.000
    Si1401   Si       0.03177    0.96479    0.80325    1.000
    N1402    N        0.00135    0.93708    0.78584    1.000
    N1403    N        0.03663    0.99616    0.77359    1.000
    N1404    N        0.10423    0.96248    0.77052    1.000
    Si1405   Si       0.10107    0.95950    0.81537    1.000
    N1406    N        0.06231    0.93664    0.81522    1.000
    Si1407   Si       0.20730    0.91169    0.77274    1.000
    N1408    N        0.18549    0.94822    0.76810    1.000
    Si1409   Si       0.17521    0.94438    0.81054    1.000
    N1410    N        0.11107    0.89414    0.78406    1.000
    N1411    N        0.19392    0.90517    0.81450    1.000
    Si1412   Si       0.21471    0.00673    0.80201    1.000
    N1413    N        0.14483    0.82682    0.76236    1.000
    N1414    N        0.09002    0.88370    0.85232    1.000
    N1415    N        0.16569    0.89548    0.87482    1.000
    N1416    N        0.11999    0.80203    0.87671    1.000
    N1417    N        0.14797    0.84819    0.83232    1.000
    Si1418   Si       0.14847    0.80475    0.84489    1.000
    N1419    N        0.18922    0.79287    0.85135    1.000
    N1420    N        0.21782    0.85070    0.85096    1.000
    Si1421   Si       0.18258    0.87267    0.84033    1.000
    Si1422   Si       0.21514    0.77581    0.82290    1.000
    N1423    N        0.20137    0.97295    0.82744    1.000
    N1424    N        0.01582    0.99226    0.83277    1.000
    N1425    N        0.09347    0.99780    0.83106    1.000
    N1426    N        0.03207    0.91719    0.87156    1.000
    Si1427   Si       0.05275    0.90116    0.83635    1.000
    N1428    N        0.13835    0.94517    0.83130    1.000
    Si1429   Si       0.22266    0.96350    0.86421    1.000
    N1430    N        0.02403    0.86803    0.82215    1.000
    N1431    N        0.99937    0.86073    0.88597    1.000
    N1432    N        0.05955    0.76343    0.89974    1.000
    N1433    N        0.99258    0.79255    0.93491    1.000
    Si1434   Si       0.98858    0.83500    0.91982    1.000
    N1435    N        0.12420    0.86282    0.91740    1.000
    Si1436   Si       0.13222    0.81901    0.91614    1.000
    N1437    N        0.17480    0.82687    0.90651    1.000
    Si1438   Si       0.16690    0.86946    0.91084    1.000
    N1439    N        0.23862    0.80642    0.90475    1.000
    N1440    N        0.06495    0.88864    0.92194    1.000
    Si1441   Si       0.02434    0.89063    0.90541    1.000
    Si1442   Si       0.09978    0.88986    0.89662    1.000
    Si1443   Si       0.01681    0.95125    0.89472    1.000
    N1444    N        0.04989    0.97922    0.90114    1.000
    Si1445   Si       0.08806    0.96697    0.91366    1.000
    N1446    N        0.00802    0.92575    0.92899    1.000
    N1447    N        0.11038    0.93401    0.89552    1.000
    N1448    N        0.22794    0.00046    0.89043    1.000
    Si1449   Si       0.15714    0.00055    0.89762    1.000
    N1450    N        0.11485    0.00023    0.90409    1.000
    N1451    N        0.17764    0.96316    0.88704    1.000
    Si1452   Si       0.20881    0.98336    0.92645    1.000
    Si1453   Si       0.23136    0.91240    0.92531    1.000
    Si1454   Si       0.09625    0.76563    0.87904    1.000
    Si1455   Si       0.20763    0.81893    0.87964    1.000
    Si1456   Si       0.14803    0.93566    0.87348    1.000
    Si1457   Si       0.06060    0.86675    0.95774    1.000
    Si1458   Si       0.09309    0.79893    0.97880    1.000
    N1459    N        0.08912    0.84453    0.98020    1.000
    Si1460   Si       0.01408    0.81074    0.96988    1.000
    N1461    N        0.05043    0.78681    0.97719    1.000
    N1462    N        0.02564    0.84519    0.94585    1.000
    Si1463   Si       0.19992    0.87299    0.97668    1.000
    N1464    N        0.16052    0.85498    0.98459    1.000
    N1465    N        0.11969    0.78995    0.94651    1.000
    N1466    N        0.23713    0.85034    0.97804    1.000
    N1467    N        0.03882    0.89291    0.98883    1.000
    N1468    N        0.08969    0.96683    0.95701    1.000
    Si1469   Si       0.00658    0.91701    0.97063    1.000
    N1470    N        0.02078    0.95203    0.99184    1.000
    Si1471   Si       0.11112    0.95816    0.99183    1.000
    N1472    N        0.21998    0.94639    0.94711    1.000
    N1473    N        0.14892    0.94081    0.98128    1.000
    N1474    N        0.23869    0.00735    0.95508    1.000
    N1475    N        0.19820    0.88591    0.93572    1.000
    N1476    N        0.30108    0.09072    0.01253    1.000
    Si1477   Si       0.27583    0.11781    0.03615    1.000
    Si1478   Si       0.32431    0.07758    0.05044    1.000
    N1479    N        0.23998    0.02537    0.05025    1.000
    N1480    N        0.42313    0.20267    0.02996    1.000
    N1481    N        0.35813    0.12353    0.99817    1.000
    N1482    N        0.46266    0.08035    0.02912    1.000
    Si1483   Si       0.47667    0.03956    0.01816    1.000
    Si1484   Si       0.37360    0.12228    0.03904    1.000
    N1485    N        0.41850    0.12812    0.03661    1.000
    Si1486   Si       0.44988    0.11249    0.99999    1.000
    N1487    N        0.37957    0.03761    0.99873    1.000
    N1488    N        0.46503    0.01547    0.05294    1.000
    Si1489   Si       0.29267    0.24707    0.05148    1.000
    N1490    N        0.26489    0.23632    0.01860    1.000
    N1491    N        0.31166    0.20903    0.05183    1.000
    Si1492   Si       0.28703    0.19421    0.01644    1.000
    N1493    N        0.26918    0.15693    0.02099    1.000
    Si1494   Si       0.41247    0.16940    0.05325    1.000
    N1495    N        0.36949    0.16356    0.05249    1.000
    N1496    N        0.47879    0.16714    0.00836    1.000
    Si1497   Si       0.41544    0.24093    0.04648    1.000
    N1498    N        0.30343    0.11225    0.07077    1.000
    N1499    N        0.25982    0.07159    0.10677    1.000
    N1500    N        0.31108    0.03855    0.06150    1.000
    Si1501   Si       0.27891    0.01082    0.06738    1.000
    Si1502   Si       0.28835    0.10503    0.10945    1.000
    N1503    N        0.36565    0.08441    0.06033    1.000
    N1504    N        0.42659    0.07893    0.09051    1.000
    Si1505   Si       0.38774    0.05795    0.08790    1.000
    N1506    N        0.38115    0.01779    0.07147    1.000
    Si1507   Si       0.44564    0.10321    0.06119    1.000
    N1508    N        0.27555    0.25278    0.08935    1.000
    Si1509   Si       0.35017    0.19821    0.06887    1.000
    N1510    N        0.34557    0.18284    0.11144    1.000
    Si1511   Si       0.25652    0.21909    0.10829    1.000
    Si1512   Si       0.49063    0.23220    0.06539    1.000
    N1513    N        0.37513    0.23461    0.06217    1.000
    Si1514   Si       0.46067    0.15563    0.10978    1.000
    N1515    N        0.47300    0.13555    0.07264    1.000
    N1516    N        0.42155    0.16873    0.09480    1.000
    N1517    N        0.44719    0.23666    0.07737    1.000
    N1518    N        0.32010    0.09687    0.13700    1.000
    Si1519   Si       0.34569    0.06894    0.15564    1.000
    Si1520   Si       0.25295    0.03821    0.13155    1.000
    N1521    N        0.32914    0.03110    0.16504    1.000
    N1522    N        0.26411    0.03845    0.17436    1.000
    N1523    N        0.38090    0.05799    0.13357    1.000
    N1524    N        0.44714    0.05855    0.15881    1.000
    N1525    N        0.46575    0.12118    0.13661    1.000
    Si1526   Si       0.45595    0.08014    0.12167    1.000
    Si1527   Si       0.40995    0.03618    0.16146    1.000
    N1528    N        0.27800    0.14244    0.13039    1.000
    Si1529   Si       0.31017    0.17194    0.13455    1.000
    N1530    N        0.28736    0.20923    0.13663    1.000
    Si1531   Si       0.44161    0.22248    0.11897    1.000
    Si1532   Si       0.37171    0.24566    0.14567    1.000
    N1533    N        0.46023    0.25466    0.14537    1.000
    N1534    N        0.47103    0.19259    0.13070    1.000
    N1535    N        0.39410    0.14485    0.15026    1.000
    Si1536   Si       0.38836    0.17691    0.12287    1.000
    N1537    N        0.40155    0.21650    0.13460    1.000
    N1538    N        0.34094    0.26052    0.11662    1.000
    N1539    N        0.28280    0.10019    0.20174    1.000
    Si1540   Si       0.25199    0.06867    0.20389    1.000
    N1541    N        0.35452    0.09859    0.19070    1.000
    Si1542   Si       0.29816    0.01261    0.18717    1.000
    Si1543   Si       0.31508    0.11768    0.17686    1.000
    N1544    N        0.48250    0.10056    0.20046    1.000
    Si1545   Si       0.48015    0.05738    0.18868    1.000
    Si1546   Si       0.38146    0.07476    0.21816    1.000
    N1547    N        0.39176    0.03570    0.20183    1.000
    N1548    N        0.41349    0.10367    0.20839    1.000
    N1549    N        0.47429    0.03249    0.22311    1.000
    Si1550   Si       0.38577    0.13017    0.18981    1.000
    Si1551   Si       0.44949    0.10762    0.23057    1.000
    N1552    N        0.32672    0.16025    0.17490    1.000
    Si1553   Si       0.33408    0.25319    0.21070    1.000
    N1554    N        0.35643    0.22812    0.18318    1.000
    Si1555   Si       0.34706    0.18850    0.20110    1.000
    N1556    N        0.29278    0.23742    0.20886    1.000
    N1557    N        0.26854    0.16454    0.22566    1.000
    Si1558   Si       0.27225    0.22505    0.17148    1.000
    N1559    N        0.38386    0.16727    0.21539    1.000
    Si1560   Si       0.48120    0.25385    0.22520    1.000
    N1561    N        0.43583    0.25750    0.21228    1.000
    N1562    N        0.30895    0.05838    0.27005    1.000
    N1563    N        0.25437    0.10541    0.26446    1.000
    Si1564   Si       0.33768    0.09131    0.27646    1.000
    Si1565   Si       0.26488    0.06405    0.27262    1.000
    Si1566   Si       0.31515    0.01493    0.26853    1.000
    Si1567   Si       0.28140    0.12450    0.23762    1.000
    N1568    N        0.31976    0.12655    0.25895    1.000
    N1569    N        0.24410    0.04042    0.23931    1.000
    Si1570   Si       0.40598    0.17068    0.25220    1.000
    Si1571   Si       0.41155    0.07696    0.28440    1.000
    Si1572   Si       0.47731    0.04740    0.26561    1.000
    N1573    N        0.37590    0.07860    0.25985    1.000
    N1574    N        0.44789    0.07628    0.26347    1.000
    N1575    N        0.24735    0.22184    0.26117    1.000
    Si1576   Si       0.33570    0.16486    0.27373    1.000
    N1577    N        0.32537    0.19228    0.23956    1.000
    Si1578   Si       0.28217    0.20706    0.23885    1.000
    N1579    N        0.36510    0.25163    0.24263    1.000
    Si1580   Si       0.40739    0.24603    0.24421    1.000
    N1581    N        0.41727    0.20935    0.26445    1.000
    N1582    N        0.37738    0.16205    0.28378    1.000
    N1583    N        0.47990    0.24784    0.26949    1.000
    N1584    N        0.43947    0.14356    0.25710    1.000
    N1585    N        0.47117    0.01475    0.29237    1.000
    N1586    N        0.34254    0.04181    0.33076    1.000
    N1587    N        0.27401    0.09807    0.32772    1.000
    N1588    N        0.35301    0.10739    0.31465    1.000
    N1589    N        0.25337    0.03971    0.30498    1.000
    Si1590   Si       0.24650    0.12250    0.30326    1.000
    Si1591   Si       0.30786    0.01926    0.34344    1.000
    Si1592   Si       0.35357    0.08011    0.34847    1.000
    Si1593   Si       0.37006    0.02056    0.30489    1.000
    N1594    N        0.40764    0.04091    0.30814    1.000
    Si1595   Si       0.44343    0.02233    0.32499    1.000
    N1596    N        0.41878    0.10895    0.31471    1.000
    N1597    N        0.46368    0.05946    0.34298    1.000
    Si1598   Si       0.25153    0.06215    0.34124    1.000
    N1599    N        0.31573    0.18154    0.30796    1.000
    Si1600   Si       0.27660    0.18249    0.32664    1.000
    Si1601   Si       0.34336    0.20106    0.33587    1.000
    N1602    N        0.24807    0.16610    0.29836    1.000
    N1603    N        0.25540    0.21659    0.34515    1.000
    N1604    N        0.37093    0.22845    0.31419    1.000
    Si1605   Si       0.41004    0.20541    0.31012    1.000
    N1606    N        0.43998    0.23276    0.32545    1.000
    Si1607   Si       0.44886    0.13844    0.30014    1.000
    N1608    N        0.43140    0.16846    0.32528    1.000
    Si1609   Si       0.38555    0.13745    0.32004    1.000
    N1610    N        0.49060    0.13205    0.30855    1.000
    N1611    N        0.36951    0.16709    0.35011    1.000
    Si1612   Si       0.46917    0.25402    0.35124    1.000
    N1613    N        0.32768    0.10121    0.37592    1.000
    N1614    N        0.27816    0.03878    0.36877    1.000
    Si1615   Si       0.28779    0.11301    0.36479    1.000
    N1616    N        0.25360    0.10629    0.38789    1.000
    N1617    N        0.37009    0.02503    0.39602    1.000
    N1618    N        0.39299    0.08144    0.36785    1.000
    N1619    N        0.45178    0.12403    0.37429    1.000
    Si1620   Si       0.39732    0.05940    0.40452    1.000
    Si1621   Si       0.43260    0.09067    0.35153    1.000
    N1622    N        0.46661    0.25385    0.39469    1.000
    Si1623   Si       0.28552    0.24006    0.36534    1.000
    N1624    N        0.32130    0.21624    0.36779    1.000
    N1625    N        0.27718    0.15592    0.35998    1.000
    Si1626   Si       0.45115    0.16748    0.36506    1.000
    N1627    N        0.42379    0.18348    0.39315    1.000
    Si1628   Si       0.37977    0.17378    0.39167    1.000
    N1629    N        0.48649    0.19277    0.37290    1.000
    N1630    N        0.28083    0.24823    0.40760    1.000
    Si1631   Si       0.48571    0.21916    0.40986    1.000
    N1632    N        0.30106    0.04741    0.43548    1.000
    N1633    N        0.31006    0.11739    0.44013    1.000
    Si1634   Si       0.34200    0.03394    0.42843    1.000
    Si1635   Si       0.34398    0.10925    0.41612    1.000
    Si1636   Si       0.30204    0.07859    0.46490    1.000
    Si1637   Si       0.27002    0.03020    0.41148    1.000
    N1638    N        0.36480    0.07280    0.43416    1.000
    N1639    N        0.43585    0.07618    0.42281    1.000
    Si1640   Si       0.43954    0.04749    0.45505    1.000
    Si1641   Si       0.46090    0.11044    0.41378    1.000
    N1642    N        0.42578    0.01489    0.42675    1.000
    N1643    N        0.32377    0.25026    0.45370    1.000
    N1644    N        0.31051    0.19189    0.43414    1.000
    Si1645   Si       0.28998    0.15607    0.44315    1.000
    N1646    N        0.24852    0.16694    0.42540    1.000
    Si1647   Si       0.33115    0.22797    0.41385    1.000
    N1648    N        0.37083    0.20912    0.41488    1.000
    N1649    N        0.44455    0.13889    0.44131    1.000
    Si1650   Si       0.41286    0.21109    0.43282    1.000
    Si1651   Si       0.40127    0.13934    0.45159    1.000
    N1652    N        0.46104    0.20724    0.44303    1.000
    N1653    N        0.41248    0.25232    0.44312    1.000
    N1654    N        0.37444    0.13974    0.41750    1.000
    N1655    N        0.40813    0.18168    0.46809    1.000
    Si1656   Si       0.45352    0.17222    0.46706    1.000
    N1657    N        0.26202    0.08519    0.48108    1.000
    N1658    N        0.33245    0.06865    0.49320    1.000
    Si1659   Si       0.25275    0.12523    0.49579    1.000
    N1660    N        0.38628    0.11404    0.48217    1.000
    N1661    N        0.40931    0.05066    0.48594    1.000
    Si1662   Si       0.37389    0.07325    0.47724    1.000
    N1663    N        0.47752    0.05819    0.47502    1.000
    Si1664   Si       0.48748    0.02641    0.50367    1.000
    N1665    N        0.45246    0.01350    0.52461    1.000
    N1666    N        0.28178    0.15821    0.48588    1.000
    N1667    N        0.28187    0.22615    0.50027    1.000
    Si1668   Si       0.31409    0.15996    0.51385    1.000
    N1669    N        0.34235    0.18855    0.49636    1.000
    Si1670   Si       0.31319    0.21336    0.47395    1.000
    Si1671   Si       0.41664    0.25873    0.48583    1.000
    N1672    N        0.47427    0.16137    0.50151    1.000
    N1673    N        0.39519    0.23119    0.51220    1.000
    Si1674   Si       0.38504    0.19037    0.50399    1.000
    N1675    N        0.45436    0.25847    0.50910    1.000
    Si1676   Si       0.37918    0.12113    0.52555    1.000
    N1677    N        0.30268    0.07140    0.56301    1.000
    Si1678   Si       0.27512    0.03821    0.56812    1.000
    Si1679   Si       0.33493    0.08183    0.53590    1.000
    N1680    N        0.25012    0.12773    0.53881    1.000
    N1681    N        0.33513    0.12499    0.52802    1.000
    N1682    N        0.37949    0.08087    0.54600    1.000
    N1683    N        0.47491    0.06966    0.57288    1.000
    N1684    N        0.41314    0.03456    0.57386    1.000
    Si1685   Si       0.41217    0.03478    0.52682    1.000
    N1686    N        0.48049    0.25286    0.57350    1.000
    N1687    N        0.30023    0.17634    0.55127    1.000
    Si1688   Si       0.25892    0.16881    0.55398    1.000
    Si1689   Si       0.31968    0.20055    0.57935    1.000
    N1690    N        0.35994    0.21102    0.56793    1.000
    N1691    N        0.29771    0.23687    0.58030    1.000
    Si1692   Si       0.44451    0.24391    0.55138    1.000
    Si1693   Si       0.48795    0.20986    0.57950    1.000
    Si1694   Si       0.37689    0.24616    0.54840    1.000
    N1695    N        0.45792    0.13945    0.56638    1.000
    N1696    N        0.39963    0.15792    0.53211    1.000
    Si1697   Si       0.42617    0.16670    0.56350    1.000
    N1698    N        0.44849    0.20382    0.55989    1.000
    N1699    N        0.27839    0.04506    0.61285    1.000
    N1700    N        0.35235    0.07739    0.60731    1.000
    Si1701   Si       0.30816    0.08001    0.60713    1.000
    N1702    N        0.30414    0.11914    0.62970    1.000
    Si1703   Si       0.48113    0.15578    0.64363    1.000
    N1704    N        0.34204    0.01163    0.63994    1.000
    N1705    N        0.42448    0.09722    0.60859    1.000
    N1706    N        0.46379    0.04340    0.63314    1.000
    Si1707   Si       0.46377    0.10472    0.59255    1.000
    Si1708   Si       0.45756    0.03396    0.59018    1.000
    Si1709   Si       0.39272    0.07175    0.58626    1.000
    Si1710   Si       0.41034    0.13524    0.62981    1.000
    N1711    N        0.37157    0.12847    0.64541    1.000
    N1712    N        0.25052    0.16686    0.59770    1.000
    N1713    N        0.33590    0.18358    0.61808    1.000
    Si1714   Si       0.33482    0.14872    0.64242    1.000
    N1715    N        0.24822    0.25160    0.62744    1.000
    N1716    N        0.38435    0.23145    0.63302    1.000
    N1717    N        0.40459    0.16844    0.60165    1.000
    Si1718   Si       0.37559    0.19990    0.60620    1.000
    Si1719   Si       0.29405    0.11609    0.67610    1.000
    N1720    N        0.31445    0.06771    0.66253    1.000
    Si1721   Si       0.35897    0.08548    0.65134    1.000
    Si1722   Si       0.30194    0.02657    0.64603    1.000
    N1723    N        0.36169    0.08583    0.69694    1.000
    N1724    N        0.25302    0.13090    0.67070    1.000
    Si1725   Si       0.38412    0.01557    0.65420    1.000
    N1726    N        0.43975    0.07373    0.69141    1.000
    N1727    N        0.39157    0.01765    0.69900    1.000
    Si1728   Si       0.43495    0.07287    0.64712    1.000
    N1729    N        0.39361    0.05724    0.65121    1.000
    N1730    N        0.39551    0.15296    0.70617    1.000
    N1731    N        0.32340    0.14776    0.68668    1.000
    Si1732   Si       0.29183    0.25371    0.68851    1.000
    N1733    N        0.31622    0.25103    0.65144    1.000
    Si1734   Si       0.35533    0.24168    0.66379    1.000
    N1735    N        0.35391    0.20917    0.69147    1.000
    N1736    N        0.28017    0.20937    0.68873    1.000
    Si1737   Si       0.31577    0.18662    0.70275    1.000
    N1738    N        0.44193    0.14662    0.65641    1.000
    Si1739   Si       0.43825    0.16236    0.69898    1.000
    N1740    N        0.47969    0.24826    0.65380    1.000
    Si1741   Si       0.39740    0.06170    0.70232    1.000
    N1742    N        0.26002    0.03939    0.72147    1.000
    N1743    N        0.32818    0.02703    0.72319    1.000
    Si1744   Si       0.25907    0.07736    0.73873    1.000
    N1745    N        0.29323    0.09597    0.71545    1.000
    N1746    N        0.35156    0.12526    0.75289    1.000
    Si1747   Si       0.32394    0.06497    0.70548    1.000
    Si1748   Si       0.36018    0.12797    0.70948    1.000
    N1749    N        0.45772    0.02901    0.74911    1.000
    N1750    N        0.39562    0.06583    0.74808    1.000
    Si1751   Si       0.47203    0.05739    0.71671    1.000
    N1752    N        0.42879    0.20376    0.71895    1.000
    N1753    N        0.46535    0.15091    0.72928    1.000
    N1754    N        0.30512    0.18902    0.74427    1.000
    Si1755   Si       0.33827    0.22957    0.75345    1.000
    Si1756   Si       0.24372    0.21148    0.71311    1.000
    N1757    N        0.31889    0.25737    0.72464    1.000
    N1758    N        0.36463    0.19461    0.75401    1.000
    N1759    N        0.24751    0.24286    0.74214    1.000
    Si1760   Si       0.38530    0.19493    0.71545    1.000
    Si1761   Si       0.45185    0.21567    0.75494    1.000
    Si1762   Si       0.26788    0.17498    0.76418    1.000
    N1763    N        0.26804    0.07489    0.78230    1.000
    Si1764   Si       0.26480    0.11529    0.80206    1.000
    N1765    N        0.43132    0.04613    0.80690    1.000
    N1766    N        0.37776    0.09525    0.81326    1.000
    Si1767   Si       0.41920    0.03192    0.76761    1.000
    Si1768   Si       0.38225    0.10072    0.76910    1.000
    N1769    N        0.48393    0.12591    0.78826    1.000
    Si1770   Si       0.33273    0.16043    0.77149    1.000
    N1771    N        0.29054    0.14425    0.78473    1.000
    N1772    N        0.33113    0.23670    0.79553    1.000
    N1773    N        0.35068    0.16577    0.81294    1.000
    N1774    N        0.24788    0.19764    0.79459    1.000
    N1775    N        0.45064    0.25761    0.76903    1.000
    Si1776   Si       0.23992    0.23909    0.78586    1.000
    N1777    N        0.41315    0.12896    0.77514    1.000
    N1778    N        0.45109    0.18921    0.78809    1.000
    Si1779   Si       0.44992    0.15001    0.77085    1.000
    N1780    N        0.26829    0.09677    0.84082    1.000
    Si1781   Si       0.33357    0.02853    0.85572    1.000
    N1782    N        0.29694    0.03168    0.83206    1.000
    Si1783   Si       0.26554    0.05724    0.82212    1.000
    N1784    N        0.36719    0.02589    0.82687    1.000
    N1785    N        0.46863    0.09269    0.84665    1.000
    Si1786   Si       0.39472    0.05858    0.83096    1.000
    N1787    N        0.41203    0.06520    0.86845    1.000
    N1788    N        0.48345    0.02051    0.85136    1.000
    Si1789   Si       0.47141    0.05363    0.82528    1.000
    N1790    N        0.30729    0.21175    0.84978    1.000
    Si1791   Si       0.30391    0.25161    0.82534    1.000
    Si1792   Si       0.34546    0.20526    0.82635    1.000
    Si1793   Si       0.27124    0.20661    0.87485    1.000
    N1794    N        0.24216    0.17779    0.85853    1.000
    N1795    N        0.36810    0.13321    0.87194    1.000
    Si1796   Si       0.44669    0.18773    0.83222    1.000
    N1797    N        0.41243    0.16399    0.84048    1.000
    N1798    N        0.44102    0.22862    0.84961    1.000
    Si1799   Si       0.38022    0.13660    0.82974    1.000
    N1800    N        0.48110    0.16735    0.85136    1.000
    Si1801   Si       0.40470    0.25217    0.84961    1.000
    Si1802   Si       0.47729    0.25011    0.86507    1.000
    N1803    N        0.37054    0.22588    0.85451    1.000
    Si1804   Si       0.40276    0.15661    0.88392    1.000
    Si1805   Si       0.32031    0.06232    0.91702    1.000
    N1806    N        0.30460    0.09894    0.89970    1.000
    N1807    N        0.29162    0.03005    0.91107    1.000
    N1808    N        0.35041    0.04654    0.89073    1.000
    Si1809   Si       0.25211    0.03788    0.92584    1.000
    Si1810   Si       0.26210    0.09673    0.88469    1.000
    Si1811   Si       0.33667    0.13213    0.90148    1.000
    Si1812   Si       0.47686    0.22470    0.93491    1.000
    Si1813   Si       0.39315    0.03852    0.89787    1.000
    N1814    N        0.47009    0.06378    0.91001    1.000
    Si1815   Si       0.44578    0.08993    0.88303    1.000
    N1816    N        0.43512    0.13147    0.89768    1.000
    Si1817   Si       0.45071    0.03395    0.93504    1.000
    N1818    N        0.40908    0.04918    0.93651    1.000
    N1819    N        0.26268    0.18824    0.91703    1.000
    Si1820   Si       0.35049    0.20854    0.89207    1.000
    N1821    N        0.33426    0.24310    0.91062    1.000
    N1822    N        0.32571    0.17305    0.90630    1.000
    N1823    N        0.26605    0.24858    0.88782    1.000
    N1824    N        0.47261    0.18665    0.91831    1.000
    N1825    N        0.47296    0.25768    0.90833    1.000
    N1826    N        0.39013    0.19066    0.90828    1.000
    Si1827   Si       0.47136    0.15275    0.89361    1.000
    Si1828   Si       0.33047    0.10875    0.96821    1.000
    N1829    N        0.32975    0.06573    0.95994    1.000
    N1830    N        0.26151    0.07065    0.95642    1.000
    Si1831   Si       0.25832    0.11495    0.95103    1.000
    Si1832   Si       0.29117    0.05921    0.98439    1.000
    Si1833   Si       0.34255    0.02478    0.97693    1.000
    N1834    N        0.29654    0.13468    0.95494    1.000
    N1835    N        0.30119    0.01797    0.99318    1.000
    Si1836   Si       0.41195    0.05863    0.97799    1.000
    N1837    N        0.41630    0.10100    0.97611    1.000
    N1838    N        0.45329    0.03760    0.97952    1.000
    Si1839   Si       0.38868    0.13204    0.96623    1.000
    N1840    N        0.29717    0.20074    0.97583    1.000
    Si1841   Si       0.28808    0.24325    0.97925    1.000
    Si1842   Si       0.29674    0.17669    0.93866    1.000
    N1843    N        0.44502    0.22531    0.96417    1.000
    Si1844   Si       0.44253    0.19099    0.99321    1.000
    N1845    N        0.41244    0.16869    0.96909    1.000
    N1846    N        0.38544    0.24442    0.95686    1.000
    Si1847   Si       0.40303    0.20558    0.94721    1.000
    N1848    N        0.48573    0.11359    0.97368    1.000
    N1849    N        0.36048    0.12336    0.93551    1.000
    Si1850   Si       0.26617    0.35073    0.01308    1.000
    Si1851   Si       0.32715    0.30024    0.00659    1.000
    N1852    N        0.32228    0.27683    0.04337    1.000
    N1853    N        0.36209    0.32305    0.01301    1.000
    N1854    N        0.28381    0.35428    0.05193    1.000
    Si1855   Si       0.36567    0.36755    0.01338    1.000
    N1856    N        0.41468    0.27491    0.01610    1.000
    Si1857   Si       0.39801    0.31051    0.03649    1.000
    N1858    N        0.42450    0.34606    0.04240    1.000
    Si1859   Si       0.43486    0.37841    0.01324    1.000
    N1860    N        0.47316    0.37274    0.99626    1.000
    N1861    N        0.49040    0.32774    0.05312    1.000
    Si1862   Si       0.33817    0.41717    0.03967    1.000
    Si1863   Si       0.31280    0.47390    0.04570    1.000
    N1864    N        0.28840    0.48463    0.01112    1.000
    N1865    N        0.35159    0.45768    0.03137    1.000
    N1866    N        0.33270    0.39381    0.00206    1.000
    Si1867   Si       0.37045    0.48561    0.00360    1.000
    Si1868   Si       0.43808    0.44875    0.01661    1.000
    N1869    N        0.45091    0.48744    0.03260    1.000
    N1870    N        0.42992    0.41292    0.03816    1.000
    N1871    N        0.36899    0.38883    0.05174    1.000
    Si1872   Si       0.29554    0.34868    0.09229    1.000
    Si1873   Si       0.35349    0.26891    0.07516    1.000
    N1874    N        0.33213    0.36563    0.10967    1.000
    N1875    N        0.29378    0.31268    0.11510    1.000
    Si1876   Si       0.45479    0.33949    0.07383    1.000
    N1877    N        0.38423    0.29842    0.07748    1.000
    N1878    N        0.44579    0.31018    0.10460    1.000
    N1879    N        0.46697    0.37837    0.09184    1.000
    N1880    N        0.30352    0.43645    0.06277    1.000
    Si1881   Si       0.26717    0.43616    0.08774    1.000
    N1882    N        0.31660    0.50228    0.07889    1.000
    Si1883   Si       0.40436    0.39975    0.07157    1.000
    N1884    N        0.41022    0.41570    0.11089    1.000
    N1885    N        0.24159    0.46919    0.07397    1.000
    Si1886   Si       0.26495    0.33159    0.14293    1.000
    N1887    N        0.27233    0.26789    0.15694    1.000
    Si1888   Si       0.29825    0.27046    0.12200    1.000
    Si1889   Si       0.35860    0.36557    0.14475    1.000
    N1890    N        0.26472    0.36849    0.11762    1.000
    Si1891   Si       0.44017    0.47727    0.16294    1.000
    N1892    N        0.39642    0.34945    0.13582    1.000
    N1893    N        0.39688    0.28064    0.14650    1.000
    Si1894   Si       0.42599    0.35520    0.16682    1.000
    Si1895   Si       0.47869    0.28527    0.12009    1.000
    Si1896   Si       0.40492    0.31016    0.11454    1.000
    Si1897   Si       0.27152    0.39573    0.15134    1.000
    N1898    N        0.30645    0.49594    0.15268    1.000
    N1899    N        0.35756    0.40710    0.15924    1.000
    N1900    N        0.27399    0.43483    0.13214    1.000
    Si1901   Si       0.28502    0.46113    0.16450    1.000
    Si1902   Si       0.33384    0.49614    0.11860    1.000
    N1903    N        0.37128    0.47152    0.12037    1.000
    Si1904   Si       0.45432    0.40994    0.11993    1.000
    N1905    N        0.45684    0.38526    0.15568    1.000
    Si1906   Si       0.38397    0.43509    0.14062    1.000
    N1907    N        0.46434    0.44976    0.13447    1.000
    Si1908   Si       0.31149    0.33813    0.20060    1.000
    N1909    N        0.26522    0.32759    0.18678    1.000
    N1910    N        0.35331    0.34768    0.18612    1.000
    Si1911   Si       0.27783    0.28393    0.19964    1.000
    N1912    N        0.32010    0.29347    0.19837    1.000
    N1913    N        0.30004    0.37854    0.17833    1.000
    Si1914   Si       0.37441    0.36559    0.22101    1.000
    N1915    N        0.41129    0.37647    0.20162    1.000
    N1916    N        0.44448    0.31693    0.17852    1.000
    Si1917   Si       0.48657    0.31905    0.18281    1.000
    Si1918   Si       0.42180    0.41940    0.20679    1.000
    Si1919   Si       0.43284    0.27688    0.17272    1.000
    Si1920   Si       0.33004    0.40720    0.19175    1.000
    N1921    N        0.30467    0.44243    0.19721    1.000
    N1922    N        0.24644    0.47258    0.18260    1.000
    N1923    N        0.35115    0.40094    0.22856    1.000
    Si1924   Si       0.31184    0.46962    0.22900    1.000
    N1925    N        0.46496    0.42124    0.21338    1.000
    N1926    N        0.40966    0.44712    0.17575    1.000
    N1927    N        0.47233    0.48684    0.19003    1.000
    Si1928   Si       0.48560    0.39532    0.18570    1.000
    Si1929   Si       0.26909    0.33012    0.25525    1.000
    Si1930   Si       0.33971    0.33436    0.27366    1.000
    N1931    N        0.30886    0.34209    0.24489    1.000
    N1932    N        0.26244    0.28850    0.24191    1.000
    N1933    N        0.24044    0.35740    0.23922    1.000
    Si1934   Si       0.40908    0.31907    0.28028    1.000
    N1935    N        0.37995    0.33985    0.25398    1.000
    N1936    N        0.40911    0.27579    0.27926    1.000
    N1937    N        0.44493    0.34071    0.27243    1.000
    Si1938   Si       0.36801    0.26187    0.28911    1.000
    Si1939   Si       0.24029    0.50567    0.28022    1.000
    N1940    N        0.35426    0.47309    0.23923    1.000
    N1941    N        0.29956    0.46390    0.27002    1.000
    Si1942   Si       0.26443    0.44188    0.28562    1.000
    N1943    N        0.23893    0.42918    0.24875    1.000
    Si1944   Si       0.44150    0.43746    0.27216    1.000
    Si1945   Si       0.36663    0.43386    0.25409    1.000
    N1946    N        0.46443    0.47121    0.25785    1.000
    N1947    N        0.40878    0.42738    0.24667    1.000
    Si1948   Si       0.37294    0.50908    0.25618    1.000
    N1949    N        0.34161    0.29402    0.29070    1.000
    N1950    N        0.46634    0.40772    0.29345    1.000
    Si1951   Si       0.26149    0.30006    0.32524    1.000
    N1952    N        0.33576    0.36130    0.30555    1.000
    Si1953   Si       0.25948    0.37317    0.31374    1.000
    N1954    N        0.26831    0.33330    0.29871    1.000
    N1955    N        0.29320    0.28152    0.34835    1.000
    Si1956   Si       0.48819    0.49988    0.31931    1.000
    Si1957   Si       0.36652    0.35202    0.33686    1.000
    N1958    N        0.39846    0.32690    0.32299    1.000
    N1959    N        0.45527    0.29085    0.33189    1.000
    Si1960   Si       0.44982    0.26455    0.29670    1.000
    Si1961   Si       0.47432    0.36473    0.29250    1.000
    N1962    N        0.28500    0.40623    0.30082    1.000
    Si1963   Si       0.32457    0.40139    0.31638    1.000
    N1964    N        0.31584    0.48179    0.33599    1.000
    N1965    N        0.35618    0.43334    0.29851    1.000
    Si1966   Si       0.33394    0.47374    0.29868    1.000
    Si1967   Si       0.41065    0.49373    0.31584    1.000
    N1968    N        0.37258    0.49612    0.29783    1.000
    N1969    N        0.42326    0.45035    0.31128    1.000
    Si1970   Si       0.46324    0.43337    0.32863    1.000
    Si1971   Si       0.39123    0.42990    0.32989    1.000
    N1972    N        0.38781    0.38851    0.34267    1.000
    N1973    N        0.34971    0.32775    0.37044    1.000
    Si1974   Si       0.31653    0.30253    0.37791    1.000
    N1975    N        0.26194    0.36987    0.35726    1.000
    N1976    N        0.34215    0.27285    0.39758    1.000
    N1977    N        0.44294    0.34860    0.37614    1.000
    N1978    N        0.40920    0.29099    0.38644    1.000
    Si1979   Si       0.37201    0.30453    0.40071    1.000
    Si1980   Si       0.42674    0.31550    0.35460    1.000
    Si1981   Si       0.48545    0.35889    0.37461    1.000
    N1982    N        0.26226    0.43364    0.38584    1.000
    Si1983   Si       0.28536    0.39986    0.37864    1.000
    Si1984   Si       0.35449    0.41787    0.38790    1.000
    N1985    N        0.32378    0.40306    0.35898    1.000
    N1986    N        0.34553    0.50138    0.39824    1.000
    N1987    N        0.44720    0.41677    0.36448    1.000
    Si1988   Si       0.38401    0.48584    0.38676    1.000
    N1989    N        0.38083    0.44723    0.36771    1.000
    Si1990   Si       0.41882    0.38909    0.38535    1.000
    N1991    N        0.38028    0.39038    0.40807    1.000
    N1992    N        0.40827    0.50726    0.35635    1.000
    Si1993   Si       0.47208    0.42245    0.40116    1.000
    Si1994   Si       0.27459    0.34743    0.43302    1.000
    Si1995   Si       0.29592    0.27764    0.43677    1.000
    N1996    N        0.29800    0.31553    0.41564    1.000
    N1997    N        0.37947    0.32612    0.43655    1.000
    N1998    N        0.44635    0.30534    0.44694    1.000
    Si1999   Si       0.37913    0.36887    0.44759    1.000
    Si2000   Si       0.41261    0.32081    0.46740    1.000
    Si2001   Si       0.43713    0.27645    0.41636    1.000
    N2002    N        0.48787    0.35473    0.46242    1.000
    Si2003   Si       0.45232    0.38077    0.46256    1.000
    Si2004   Si       0.48803    0.31778    0.44103    1.000
    N2005    N        0.34499    0.38465    0.46678    1.000
    N2006    N        0.29278    0.38521    0.41977    1.000
    N2007    N        0.33778    0.43941    0.42297    1.000
    Si2008   Si       0.34240    0.48089    0.43775    1.000
    Si2009   Si       0.31450    0.41019    0.44741    1.000
    N2010    N        0.30348    0.48845    0.45709    1.000
    N2011    N        0.40354    0.47237    0.42713    1.000
    N2012    N        0.47272    0.46267    0.41552    1.000
    Si2013   Si       0.44438    0.49310    0.42470    1.000
    N2014    N        0.44321    0.39686    0.42293    1.000
    Si2015   Si       0.27294    0.50628    0.43400    1.000
    N2016    N        0.41485    0.36335    0.47298    1.000
    Si2017   Si       0.28924    0.31778    0.49783    1.000
    N2018    N        0.33043    0.32884    0.50765    1.000
    Si2019   Si       0.33753    0.37341    0.50654    1.000
    N2020    N        0.27497    0.35517    0.47768    1.000
    Si2021   Si       0.25781    0.26235    0.50243    1.000
    N2022    N        0.27186    0.28825    0.47084    1.000
    N2023    N        0.39535    0.29635    0.49831    1.000
    Si2024   Si       0.36472    0.31057    0.52542    1.000
    Si2025   Si       0.40727    0.47782    0.47068    1.000
    N2026    N        0.44358    0.50333    0.46683    1.000
    N2027    N        0.28797    0.42669    0.47956    1.000
    Si2028   Si       0.34126    0.50239    0.50916    1.000
    Si2029   Si       0.28360    0.46829    0.49013    1.000
    N2030    N        0.24652    0.48952    0.50118    1.000
    Si2031   Si       0.27166    0.39324    0.49910    1.000
    N2032    N        0.30286    0.48666    0.52696    1.000
    N2033    N        0.36497    0.48995    0.47486    1.000
    N2034    N        0.47202    0.40874    0.48856    1.000
    N2035    N        0.41715    0.44792    0.50120    1.000
    Si2036   Si       0.44628    0.42461    0.52126    1.000
    N2037    N        0.25739    0.34351    0.57194    1.000
    N2038    N        0.34606    0.27734    0.54589    1.000
    Si2039   Si       0.30724    0.27536    0.56109    1.000
    N2040    N        0.27680    0.29230    0.53185    1.000
    N2041    N        0.48294    0.44543    0.53734    1.000
    Si2042   Si       0.46962    0.36322    0.56551    1.000
    N2043    N        0.38787    0.33297    0.55384    1.000
    N2044    N        0.45437    0.32196    0.57147    1.000
    N2045    N        0.41070    0.26553    0.56685    1.000
    Si2046   Si       0.39611    0.37483    0.55931    1.000
    Si2047   Si       0.41189    0.30685    0.57967    1.000
    Si2048   Si       0.48892    0.29502    0.56974    1.000
    Si2049   Si       0.26690    0.38394    0.55978    1.000
    N2050    N        0.30173    0.38459    0.53234    1.000
    N2051    N        0.24909    0.49068    0.57354    1.000
    Si2052   Si       0.33619    0.39756    0.56859    1.000
    Si2053   Si       0.32435    0.47458    0.56503    1.000
    N2054    N        0.31678    0.43467    0.57745    1.000
    Si2055   Si       0.26507    0.50660    0.53707    1.000
    N2056    N        0.36237    0.48926    0.54779    1.000
    N2057    N        0.36352    0.39174    0.53326    1.000
    Si2058   Si       0.38783    0.49704    0.58266    1.000
    N2059    N        0.43030    0.50352    0.57562    1.000
    N2060    N        0.43594    0.38826    0.54853    1.000
    Si2061   Si       0.28704    0.33703    0.60579    1.000
    N2062    N        0.30239    0.29629    0.59971    1.000
    N2063    N        0.25396    0.33782    0.63286    1.000
    N2064    N        0.30717    0.37414    0.59559    1.000
    Si2065   Si       0.29110    0.25995    0.61834    1.000
    N2066    N        0.40190    0.30771    0.62176    1.000
    N2067    N        0.48715    0.37612    0.60433    1.000
    Si2068   Si       0.27159    0.49414    0.60911    1.000
    Si2069   Si       0.29446    0.41654    0.61488    1.000
    N2070    N        0.31376    0.49823    0.59873    1.000
    N2071    N        0.25529    0.41141    0.59419    1.000
    N2072    N        0.27751    0.45912    0.63540    1.000
    N2073    N        0.33453    0.42903    0.64171    1.000
    Si2074   Si       0.43576    0.47222    0.60687    1.000
    N2075    N        0.37538    0.39143    0.59285    1.000
    Si2076   Si       0.37604    0.42294    0.62381    1.000
    N2077    N        0.39441    0.45755    0.60260    1.000
    N2078    N        0.47134    0.44356    0.60735    1.000
    Si2079   Si       0.48946    0.41168    0.62984    1.000
    N2080    N        0.48591    0.31808    0.65075    1.000
    N2081    N        0.43425    0.48712    0.64775    1.000
    N2082    N        0.25438    0.27691    0.68851    1.000
    Si2083   Si       0.25309    0.36183    0.66892    1.000
    N2084    N        0.27655    0.34782    0.70003    1.000
    N2085    N        0.36855    0.27954    0.68198    1.000
    N2086    N        0.43348    0.29411    0.68765    1.000
    Si2087   Si       0.39768    0.30719    0.66546    1.000
    Si2088   Si       0.47408    0.28455    0.67546    1.000
    N2089    N        0.39888    0.34593    0.68643    1.000
    Si2090   Si       0.39421    0.38840    0.68579    1.000
    N2091    N        0.35155    0.39072    0.69755    1.000
    N2092    N        0.27839    0.39881    0.65694    1.000
    Si2093   Si       0.25082    0.43332    0.66073    1.000
    Si2094   Si       0.31820    0.40781    0.67773    1.000
    Si2095   Si       0.31629    0.46555    0.65553    1.000
    N2096    N        0.34152    0.49825    0.65808    1.000
    N2097    N        0.30843    0.44610    0.69608    1.000
    Si2098   Si       0.36777    0.50288    0.69198    1.000
    N2099    N        0.40493    0.41923    0.65642    1.000
    Si2100   Si       0.42500    0.45432    0.67595    1.000
    N2101    N        0.48948    0.39480    0.67226    1.000
    N2102    N        0.46505    0.46464    0.69529    1.000
    Si2103   Si       0.46881    0.50152    0.67093    1.000
    N2104    N        0.39517    0.46970    0.70342    1.000
    Si2105   Si       0.29754    0.33509    0.73441    1.000
    N2106    N        0.33858    0.32427    0.72805    1.000
    Si2107   Si       0.35262    0.28449    0.72137    1.000
    Si2108   Si       0.34647    0.36743    0.73288    1.000
    N2109    N        0.30736    0.37542    0.75368    1.000
    N2110    N        0.27133    0.30811    0.75597    1.000
    Si2111   Si       0.24517    0.28537    0.72947    1.000
    Si2112   Si       0.42908    0.32971    0.71488    1.000
    N2113    N        0.46758    0.34938    0.72001    1.000
    N2114    N        0.41859    0.31669    0.75376    1.000
    N2115    N        0.37773    0.26220    0.74741    1.000
    N2116    N        0.27568    0.49652    0.72454    1.000
    Si2117   Si       0.27782    0.45244    0.72708    1.000
    N2118    N        0.35008    0.49616    0.73321    1.000
    N2119    N        0.24051    0.44002    0.70581    1.000
    N2120    N        0.42350    0.39978    0.71619    1.000
    Si2121   Si       0.38753    0.47835    0.74662    1.000
    Si2122   Si       0.40999    0.40121    0.75801    1.000
    Si2123   Si       0.46795    0.39332    0.71049    1.000
    N2124    N        0.48708    0.42115    0.73655    1.000
    Si2125   Si       0.26323    0.30765    0.80034    1.000
    N2126    N        0.26643    0.26307    0.80918    1.000
    Si2127   Si       0.36059    0.37244    0.80486    1.000
    Si2128   Si       0.47966    0.27786    0.79320    1.000
    N2129    N        0.40193    0.27679    0.81097    1.000
    Si2130   Si       0.41179    0.27588    0.76797    1.000
    Si2131   Si       0.44518    0.33870    0.77883    1.000
    N2132    N        0.48464    0.31861    0.77549    1.000
    N2133    N        0.37548    0.37414    0.76393    1.000
    N2134    N        0.44499    0.38597    0.78191    1.000
    N2135    N        0.25559    0.38491    0.80515    1.000
    Si2136   Si       0.28510    0.47480    0.79701    1.000
    Si2137   Si       0.29300    0.39911    0.78571    1.000
    N2138    N        0.32843    0.39870    0.81529    1.000
    N2139    N        0.28915    0.44112    0.76661    1.000
    N2140    N        0.24298    0.48694    0.79198    1.000
    N2141    N        0.30919    0.50923    0.78893    1.000
    N2142    N        0.39147    0.44067    0.76926    1.000
    Si2143   Si       0.39201    0.43867    0.81410    1.000
    N2144    N        0.41908    0.50371    0.76414    1.000
    N2145    N        0.31710    0.28184    0.85184    1.000
    Si2146   Si       0.26368    0.36262    0.84309    1.000
    Si2147   Si       0.32660    0.32278    0.84258    1.000
    N2148    N        0.28950    0.33337    0.82234    1.000
    N2149    N        0.36337    0.33316    0.82072    1.000
    Si2150   Si       0.47057    0.32761    0.84914    1.000
    Si2151   Si       0.40037    0.31448    0.83132    1.000
    N2152    N        0.47392    0.28449    0.83788    1.000
    N2153    N        0.40312    0.29414    0.87064    1.000
    N2154    N        0.43599    0.33817    0.82331    1.000
    Si2155   Si       0.43460    0.38229    0.82512    1.000
    N2156    N        0.27382    0.39726    0.86905    1.000
    Si2157   Si       0.25797    0.43594    0.85643    1.000
    Si2158   Si       0.32841    0.43245    0.84500    1.000
    N2159    N        0.29094    0.45176    0.83294    1.000
    N2160    N        0.36127    0.45861    0.83630    1.000
    N2161    N        0.43079    0.44748    0.82676    1.000
    N2162    N        0.47538    0.46316    0.87175    1.000
    N2163    N        0.39385    0.39582    0.82453    1.000
    N2164    N        0.41024    0.49828    0.86944    1.000
    Si2165   Si       0.36754    0.49042    0.86471    1.000
    N2166    N        0.45366    0.39104    0.86262    1.000
    Si2167   Si       0.48320    0.42564    0.85033    1.000
    Si2168   Si       0.44445    0.48241    0.84699    1.000
    N2169    N        0.32703    0.34965    0.87771    1.000
    N2170    N        0.29847    0.30528    0.91854    1.000
    Si2171   Si       0.33163    0.33377    0.91923    1.000
    Si2172   Si       0.30382    0.27035    0.89240    1.000
    N2173    N        0.36258    0.30445    0.92808    1.000
    N2174    N        0.43616    0.47144    0.92759    1.000
    N2175    N        0.46338    0.33087    0.89225    1.000
    Si2176   Si       0.46714    0.29896    0.92364    1.000
    Si2177   Si       0.40117    0.30999    0.91100    1.000
    N2178    N        0.40257    0.35515    0.90962    1.000
    Si2179   Si       0.44238    0.36935    0.89727    1.000
    Si2180   Si       0.30803    0.38701    0.89287    1.000
    N2181    N        0.35020    0.48252    0.90531    1.000
    Si2182   Si       0.34814    0.44104    0.92120    1.000
    N2183    N        0.25142    0.45576    0.89333    1.000
    N2184    N        0.33274    0.42161    0.88710    1.000
    Si2185   Si       0.24424    0.47616    0.92971    1.000
    Si2186   Si       0.47634    0.46692    0.91493    1.000
    N2187    N        0.44409    0.39474    0.93281    1.000
    N2188    N        0.38537    0.42218    0.93881    1.000
    N2189    N        0.31372    0.36995    0.93435    1.000
    Si2190   Si       0.27148    0.30615    0.95274    1.000
    N2191    N        0.32369    0.26715    0.97900    1.000
    N2192    N        0.25772    0.26374    0.95142    1.000
    N2193    N        0.29027    0.32165    0.99239    1.000
    Si2194   Si       0.35091    0.26627    0.94368    1.000
    N2195    N        0.40442    0.46324    0.99097    1.000
    N2196    N        0.39980    0.37413    0.98528    1.000
    Si2197   Si       0.42143    0.26416    0.97235    1.000
    N2198    N        0.42937    0.29728    0.94341    1.000
    Si2199   Si       0.40246    0.38233    0.94233    1.000
    N2200    N        0.34436    0.49733    0.97056    1.000
    N2201    N        0.31588    0.43687    0.95241    1.000
    Si2202   Si       0.30423    0.39726    0.96887    1.000
    Si2203   Si       0.30491    0.47620    0.97029    1.000
    N2204    N        0.26680    0.38927    0.99032    1.000
    N2205    N        0.27710    0.49868    0.94406    1.000
    Si2206   Si       0.42023    0.44292    0.95559    1.000
    N2207    N        0.45550    0.43249    0.98099    1.000
    Si2208   Si       0.47935    0.40305    0.96124    1.000
    N2209    N        0.27489    0.61207    0.02224    1.000
    Si2210   Si       0.31456    0.60875    0.03662    1.000
    Si2211   Si       0.26155    0.51900    0.01109    1.000
    N2212    N        0.32983    0.56755    0.04613    1.000
    N2213    N        0.26255    0.53196    0.05292    1.000
    N2214    N        0.34735    0.62914    0.01790    1.000
    Si2215   Si       0.36917    0.56040    0.02974    1.000
    Si2216   Si       0.42825    0.52049    0.01933    1.000
    N2217    N        0.44741    0.55626    0.03164    1.000
    N2218    N        0.38498    0.52114    0.02441    1.000
    Si2219   Si       0.47308    0.57855    0.00570    1.000
    N2220    N        0.46398    0.62043    0.99651    1.000
    Si2221   Si       0.25651    0.70639    0.02486    1.000
    N2222    N        0.29158    0.73053    0.01568    1.000
    Si2223   Si       0.25274    0.64621    0.03924    1.000
    Si2224   Si       0.32809    0.73176    0.03984    1.000
    N2225    N        0.24476    0.67031    0.00426    1.000
    Si2226   Si       0.36408    0.65872    0.04669    1.000
    N2227    N        0.36353    0.74989    0.02074    1.000
    N2228    N        0.48719    0.70711    0.04890    1.000
    N2229    N        0.40319    0.67681    0.03101    1.000
    N2230    N        0.43808    0.75043    0.02087    1.000
    Si2231   Si       0.24938    0.58993    0.99452    1.000
    Si2232   Si       0.30076    0.54270    0.07096    1.000
    N2233    N        0.28561    0.56536    0.10421    1.000
    Si2234   Si       0.30942    0.60336    0.10671    1.000
    N2235    N        0.31085    0.63184    0.07267    1.000
    Si2236   Si       0.38575    0.60545    0.09556    1.000
    N2237    N        0.41981    0.52519    0.08826    1.000
    Si2238   Si       0.43325    0.56221    0.07350    1.000
    N2239    N        0.47773    0.58244    0.08728    1.000
    Si2240   Si       0.45610    0.61351    0.10915    1.000
    N2241    N        0.39408    0.58242    0.05846    1.000
    N2242    N        0.42287    0.58790    0.11412    1.000
    Si2243   Si       0.30448    0.67446    0.07882    1.000
    N2244    N        0.26874    0.68139    0.05821    1.000
    N2245    N        0.42801    0.71001    0.08524    1.000
    Si2246   Si       0.45409    0.73577    0.05861    1.000
    N2247    N        0.38586    0.64626    0.08132    1.000
    N2248    N        0.45591    0.64793    0.08322    1.000
    Si2249   Si       0.42176    0.66955    0.07083    1.000
    Si2250   Si       0.49083    0.67402    0.07780    1.000
    N2251    N        0.33719    0.69213    0.05521    1.000
    Si2252   Si       0.25208    0.55571    0.13032    1.000
    Si2253   Si       0.35406    0.56935    0.14994    1.000
    N2254    N        0.28264    0.62473    0.13258    1.000
    N2255    N        0.35091    0.59848    0.11877    1.000
    N2256    N        0.35718    0.53187    0.12670    1.000
    N2257    N        0.26184    0.55150    0.17209    1.000
    Si2258   Si       0.42357    0.55929    0.15160    1.000
    N2259    N        0.47033    0.62925    0.14720    1.000
    N2260    N        0.46352    0.56169    0.16779    1.000
    N2261    N        0.42029    0.51406    0.15210    1.000
    Si2262   Si       0.49091    0.59727    0.17056    1.000
    Si2263   Si       0.48657    0.52344    0.17185    1.000
    N2264    N        0.39113    0.57723    0.17186    1.000
    Si2265   Si       0.24553    0.69957    0.14934    1.000
    N2266    N        0.31367    0.68172    0.12183    1.000
    Si2267   Si       0.30296    0.65606    0.15719    1.000
    Si2268   Si       0.34193    0.70948    0.14211    1.000
    N2269    N        0.33019    0.74927    0.13125    1.000
    N2270    N        0.25611    0.73187    0.12150    1.000
    N2271    N        0.42979    0.75392    0.15407    1.000
    N2272    N        0.38545    0.70404    0.14137    1.000
    Si2273   Si       0.39446    0.50938    0.11730    1.000
    Si2274   Si       0.46378    0.73219    0.17156    1.000
    Si2275   Si       0.41196    0.73184    0.11933    1.000
    N2276    N        0.45034    0.69061    0.16457    1.000
    Si2277   Si       0.48434    0.66820    0.15073    1.000
    Si2278   Si       0.31918    0.59761    0.21017    1.000
    Si2279   Si       0.24998    0.57794    0.20477    1.000
    Si2280   Si       0.29789    0.52903    0.17885    1.000
    N2281    N        0.32693    0.56151    0.18321    1.000
    N2282    N        0.29728    0.50867    0.21744    1.000
    N2283    N        0.35935    0.60129    0.23006    1.000
    Si2284   Si       0.39264    0.60827    0.20187    1.000
    N2285    N        0.42990    0.59924    0.22369    1.000
    N2286    N        0.32853    0.63007    0.17913    1.000
    N2287    N        0.33470    0.69354    0.18187    1.000
    N2288    N        0.28103    0.74547    0.17966    1.000
    Si2289   Si       0.25733    0.64896    0.20976    1.000
    Si2290   Si       0.35164    0.65925    0.20256    1.000
    Si2291   Si       0.30981    0.72287    0.20271    1.000
    N2292    N        0.33783    0.75280    0.21860    1.000
    N2293    N        0.26992    0.67606    0.17782    1.000
    N2294    N        0.29476    0.63722    0.23031    1.000
    Si2295   Si       0.23899    0.75476    0.19255    1.000
    Si2296   Si       0.37851    0.73885    0.22621    1.000
    N2297    N        0.40591    0.70851    0.21080    1.000
    Si2298   Si       0.44341    0.69803    0.23068    1.000
    N2299    N        0.39095    0.64906    0.18763    1.000
    N2300    N        0.46300    0.73569    0.21599    1.000
    N2301    N        0.24424    0.61758    0.18435    1.000
    N2302    N        0.28708    0.57777    0.23360    1.000
    Si2303   Si       0.40870    0.68554    0.17203    1.000
    N2304    N        0.34371    0.54215    0.25925    1.000
    Si2305   Si       0.30053    0.53942    0.24775    1.000
    Si2306   Si       0.27223    0.61221    0.26163    1.000
    N2307    N        0.27524    0.52979    0.28294    1.000
    Si2308   Si       0.36234    0.57984    0.27042    1.000
    N2309    N        0.42211    0.69099    0.26818    1.000
    Si2310   Si       0.37948    0.69069    0.27288    1.000
    Si2311   Si       0.42890    0.56141    0.24335    1.000
    N2312    N        0.47019    0.54892    0.24754    1.000
    Si2313   Si       0.46140    0.62034    0.24201    1.000
    N2314    N        0.40467    0.57237    0.28000    1.000
    N2315    N        0.41391    0.51865    0.24531    1.000
    Si2316   Si       0.45394    0.51221    0.26264    1.000
    N2317    N        0.46147    0.60865    0.28723    1.000
    N2318    N        0.24146    0.75850    0.23567    1.000
    Si2319   Si       0.27059    0.73892    0.26110    1.000
    N2320    N        0.29262    0.70690    0.24019    1.000
    Si2321   Si       0.30867    0.67019    0.25603    1.000
    N2322    N        0.35126    0.67078    0.24619    1.000
    N2323    N        0.28791    0.65402    0.28940    1.000
    N2324    N        0.36785    0.73413    0.27081    1.000
    N2325    N        0.46917    0.66271    0.23188    1.000
    N2326    N        0.48361    0.72381    0.29234    1.000
    Si2327   Si       0.27875    0.55439    0.31913    1.000
    N2328    N        0.34708    0.59642    0.30659    1.000
    N2329    N        0.26786    0.59393    0.30175    1.000
    Si2330   Si       0.27712    0.62772    0.32672    1.000
    N2331    N        0.31427    0.54897    0.34537    1.000
    N2332    N        0.24233    0.54503    0.33901    1.000
    Si2333   Si       0.33354    0.58792    0.34765    1.000
    Si2334   Si       0.42669    0.59408    0.31008    1.000
    N2335    N        0.40625    0.62555    0.33727    1.000
    N2336    N        0.44834    0.51404    0.30657    1.000
    N2337    N        0.43032    0.56742    0.34451    1.000
    N2338    N        0.24755    0.65606    0.33714    1.000
    Si2339   Si       0.26973    0.68693    0.31356    1.000
    N2340    N        0.30683    0.70277    0.32994    1.000
    N2341    N        0.25193    0.72338    0.29572    1.000
    N2342    N        0.37050    0.67957    0.31340    1.000
    Si2343   Si       0.44415    0.71151    0.30081    1.000
    N2344    N        0.44361    0.68256    0.33079    1.000
    N2345    N        0.41733    0.74513    0.31476    1.000
    Si2346   Si       0.40351    0.66751    0.33925    1.000
    Si2347   Si       0.37418    0.75318    0.31007    1.000
    Si2348   Si       0.30561    0.73891    0.35291    1.000
    N2349    N        0.30061    0.61384    0.35856    1.000
    Si2350   Si       0.31520    0.51281    0.36883    1.000
    N2351    N        0.27531    0.51041    0.39137    1.000
    N2352    N        0.36436    0.58974    0.37908    1.000
    Si2353   Si       0.40714    0.59556    0.36796    1.000
    Si2354   Si       0.44606    0.52909    0.36198    1.000
    N2355    N        0.48162    0.62549    0.35385    1.000
    N2356    N        0.44081    0.52987    0.40509    1.000
    N2357    N        0.48830    0.51853    0.35935    1.000
    N2358    N        0.43228    0.60295    0.40449    1.000
    Si2359   Si       0.30555    0.63441    0.39642    1.000
    N2360    N        0.28471    0.72829    0.38909    1.000
    N2361    N        0.32792    0.67118    0.38448    1.000
    N2362    N        0.43732    0.74494    0.38605    1.000
    Si2363   Si       0.34447    0.68979    0.34801    1.000
    Si2364   Si       0.47209    0.66832    0.35736    1.000
    N2365    N        0.38619    0.68882    0.37248    1.000
    N2366    N        0.44800    0.67227    0.39361    1.000
    Si2367   Si       0.42023    0.70528    0.39558    1.000
    N2368    N        0.35248    0.74727    0.34589    1.000
    N2369    N        0.26601    0.54734    0.44755    1.000
    Si2370   Si       0.28458    0.58671    0.45096    1.000
    N2371    N        0.31527    0.60155    0.42415    1.000
    Si2372   Si       0.35942    0.59772    0.42249    1.000
    N2373    N        0.24526    0.60301    0.43967    1.000
    N2374    N        0.37492    0.64055    0.42633    1.000
    N2375    N        0.37444    0.57062    0.44927    1.000
    Si2376   Si       0.45416    0.56829    0.41888    1.000
    N2377    N        0.46842    0.57009    0.46014    1.000
    Si2378   Si       0.44817    0.63881    0.42062    1.000
    N2379    N        0.27593    0.71990    0.44875    1.000
    N2380    N        0.33834    0.70588    0.43485    1.000
    Si2381   Si       0.30004    0.69546    0.41554    1.000
    N2382    N        0.27582    0.65898    0.41803    1.000
    Si2383   Si       0.25798    0.74595    0.41701    1.000
    N2384    N        0.44676    0.65696    0.46094    1.000
    Si2385   Si       0.36434    0.67847    0.41073    1.000
    Si2386   Si       0.36903    0.73842    0.44458    1.000
    N2387    N        0.40027    0.70524    0.43375    1.000
    N2388    N        0.28924    0.59254    0.49361    1.000
    N2389    N        0.34096    0.54664    0.51001    1.000
    Si2390   Si       0.37379    0.56461    0.49055    1.000
    Si2391   Si       0.45099    0.53944    0.48830    1.000
    N2392    N        0.41395    0.55293    0.50538    1.000
    N2393    N        0.37997    0.60396    0.51835    1.000
    Si2394   Si       0.27689    0.62985    0.51305    1.000
    N2395    N        0.27855    0.75788    0.50571    1.000
    Si2396   Si       0.24242    0.73594    0.51948    1.000
    N2397    N        0.27035    0.67194    0.49906    1.000
    N2398    N        0.33032    0.71367    0.50673    1.000
    Si2399   Si       0.30585    0.73869    0.47576    1.000
    N2400    N        0.32104    0.64176    0.51663    1.000
    Si2401   Si       0.30779    0.68204    0.52335    1.000
    Si2402   Si       0.24810    0.69341    0.46942    1.000
    Si2403   Si       0.36244    0.73803    0.51682    1.000
    N2404    N        0.40973    0.67539    0.50950    1.000
    Si2405   Si       0.42246    0.69429    0.47237    1.000
    N2406    N        0.45513    0.72649    0.47460    1.000
    N2407    N        0.39162    0.74248    0.48651    1.000
    N2408    N        0.48289    0.67385    0.50953    1.000
    N2409    N        0.47672    0.53491    0.52283    1.000
    Si2410   Si       0.44542    0.65205    0.52310    1.000
    N2411    N        0.27176    0.54842    0.54483    1.000
    N2412    N        0.32200    0.58980    0.56276    1.000
    Si2413   Si       0.34800    0.62010    0.54320    1.000
    Si2414   Si       0.25049    0.57747    0.56848    1.000
    N2415    N        0.25606    0.62068    0.55307    1.000
    Si2416   Si       0.30611    0.56897    0.52671    1.000
    Si2417   Si       0.41571    0.58613    0.53323    1.000
    Si2418   Si       0.46354    0.52716    0.56441    1.000
    N2419    N        0.41808    0.58058    0.57568    1.000
    N2420    N        0.45247    0.60970    0.53181    1.000
    Si2421   Si       0.45783    0.59825    0.57791    1.000
    N2422    N        0.43451    0.66600    0.56404    1.000
    N2423    N        0.30045    0.68746    0.56531    1.000
    Si2424   Si       0.26209    0.69970    0.58168    1.000
    N2425    N        0.36175    0.65334    0.56713    1.000
    N2426    N        0.37657    0.71771    0.55283    1.000
    Si2427   Si       0.39413    0.67877    0.54891    1.000
    N2428    N        0.47985    0.56333    0.58560    1.000
    Si2429   Si       0.33840    0.52339    0.62482    1.000
    Si2430   Si       0.32719    0.59449    0.60609    1.000
    N2431    N        0.26236    0.59108    0.60783    1.000
    N2432    N        0.25269    0.52476    0.63116    1.000
    N2433    N        0.31506    0.55868    0.62964    1.000
    Si2434   Si       0.27177    0.56170    0.63848    1.000
    N2435    N        0.36783    0.59954    0.61932    1.000
    N2436    N        0.37653    0.53053    0.60638    1.000
    Si2437   Si       0.39472    0.56807    0.60891    1.000
    N2438    N        0.47478    0.62758    0.60282    1.000
    Si2439   Si       0.44993    0.66169    0.60271    1.000
    Si2440   Si       0.27051    0.63194    0.59430    1.000
    N2441    N        0.31076    0.63743    0.61351    1.000
    N2442    N        0.25168    0.73869    0.59837    1.000
    N2443    N        0.34936    0.70303    0.61640    1.000
    N2444    N        0.25316    0.66820    0.61072    1.000
    Si2445   Si       0.33120    0.67136    0.59278    1.000
    N2446    N        0.47350    0.69379    0.62143    1.000
    N2447    N        0.41661    0.65242    0.63014    1.000
    N2448    N        0.40307    0.74306    0.61192    1.000
    Si2449   Si       0.48432    0.73252    0.63653    1.000
    Si2450   Si       0.36749    0.73289    0.59209    1.000
    N2451    N        0.31810    0.61310    0.68431    1.000
    N2452    N        0.26308    0.58018    0.67437    1.000
    Si2453   Si       0.24237    0.61612    0.68814    1.000
    Si2454   Si       0.42021    0.56192    0.68550    1.000
    N2455    N        0.45439    0.53560    0.69185    1.000
    N2456    N        0.41855    0.57878    0.64437    1.000
    Si2457   Si       0.39493    0.61912    0.64496    1.000
    Si2458   Si       0.35336    0.71001    0.66009    1.000
    Si2459   Si       0.30370    0.64291    0.65648    1.000
    N2460    N        0.26537    0.65431    0.67575    1.000
    N2461    N        0.32298    0.67943    0.67241    1.000
    N2462    N        0.33475    0.75025    0.66292    1.000
    Si2463   Si       0.41474    0.66884    0.67049    1.000
    N2464    N        0.38664    0.63448    0.68387    1.000
    N2465    N        0.45707    0.66698    0.68169    1.000
    N2466    N        0.39342    0.70547    0.67730    1.000
    Si2467   Si       0.42654    0.73269    0.69439    1.000
    N2468    N        0.45029    0.75097    0.66125    1.000
    N2469    N        0.38390    0.54264    0.69805    1.000
    N2470    N        0.31558    0.55365    0.72250    1.000
    Si2471   Si       0.35956    0.55567    0.73051    1.000
    N2472    N        0.26227    0.60876    0.73021    1.000
    Si2473   Si       0.31169    0.51441    0.74494    1.000
    Si2474   Si       0.29389    0.58612    0.70583    1.000
    N2475    N        0.36779    0.59937    0.73193    1.000
    N2476    N        0.43607    0.58971    0.71311    1.000
    Si2477   Si       0.40833    0.62001    0.72780    1.000
    Si2478   Si       0.46939    0.56250    0.72388    1.000
    Si2479   Si       0.45933    0.67763    0.72239    1.000
    Si2480   Si       0.35035    0.63211    0.70734    1.000
    Si2481   Si       0.25725    0.72217    0.74543    1.000
    N2482    N        0.32429    0.65802    0.73139    1.000
    N2483    N        0.25779    0.67771    0.74190    1.000
    Si2484   Si       0.29279    0.67932    0.70676    1.000
    N2485    N        0.28377    0.72406    0.70802    1.000
    N2486    N        0.45658    0.72190    0.72328    1.000
    N2487    N        0.42227    0.65983    0.73343    1.000
    N2488    N        0.33879    0.62312    0.78621    1.000
    Si2489   Si       0.33334    0.53699    0.81049    1.000
    N2490    N        0.35685    0.55250    0.77486    1.000
    N2491    N        0.25449    0.56046    0.78167    1.000
    N2492    N        0.26919    0.62809    0.79986    1.000
    Si2493   Si       0.26783    0.58594    0.81488    1.000
    Si2494   Si       0.37129    0.59589    0.77768    1.000
    N2495    N        0.46854    0.55438    0.76758    1.000
    N2496    N        0.40832    0.61832    0.77459    1.000
    Si2497   Si       0.48161    0.58329    0.79650    1.000
    Si2498   Si       0.45845    0.51349    0.78069    1.000
    N2499    N        0.30548    0.68209    0.79788    1.000
    Si2500   Si       0.30388    0.72565    0.80300    1.000
    Si2501   Si       0.33439    0.66339    0.77301    1.000
    N2502    N        0.27624    0.74574    0.77717    1.000
    N2503    N        0.34316    0.73952    0.80321    1.000
    Si2504   Si       0.25347    0.63957    0.76143    1.000
    Si2505   Si       0.37843    0.71680    0.80342    1.000
    N2506    N        0.41209    0.73953    0.78547    1.000
    N2507    N        0.37345    0.68166    0.78006    1.000
    Si2508   Si       0.44831    0.72100    0.80238    1.000
    Si2509   Si       0.41062    0.66132    0.77425    1.000
    N2510    N        0.44156    0.67779    0.80037    1.000
    N2511    N        0.35658    0.52753    0.84810    1.000
    Si2512   Si       0.33599    0.60457    0.82659    1.000
    N2513    N        0.24728    0.59827    0.85260    1.000
    N2514    N        0.30849    0.57081    0.82409    1.000
    N2515    N        0.24148    0.53228    0.84052    1.000
    Si2516   Si       0.41592    0.68037    0.86377    1.000
    Si2517   Si       0.37669    0.56299    0.86169    1.000
    Si2518   Si       0.41335    0.60609    0.83600    1.000
    N2519    N        0.41730    0.57541    0.86914    1.000
    N2520    N        0.37566    0.58866    0.82341    1.000
    N2521    N        0.45511    0.61136    0.81937    1.000
    N2522    N        0.46349    0.51307    0.82284    1.000
    N2523    N        0.32421    0.63763    0.84876    1.000
    Si2524   Si       0.24940    0.71506    0.85740    1.000
    N2525    N        0.28731    0.73405    0.84332    1.000
    N2526    N        0.25971    0.67121    0.85473    1.000
    Si2527   Si       0.28921    0.65540    0.82787    1.000
    Si2528   Si       0.35729    0.63618    0.87844    1.000
    Si2529   Si       0.46700    0.65210    0.82298    1.000
    N2530    N        0.45508    0.73215    0.84406    1.000
    N2531    N        0.45877    0.66656    0.86444    1.000
    N2532    N        0.39649    0.64141    0.85770    1.000
    Si2533   Si       0.47993    0.70511    0.86891    1.000
    Si2534   Si       0.37147    0.74317    0.86924    1.000
    N2535    N        0.38737    0.70873    0.84494    1.000
    Si2536   Si       0.32549    0.58908    0.91820    1.000
    N2537    N        0.28979    0.61667    0.91277    1.000
    N2538    N        0.24945    0.56068    0.91482    1.000
    Si2539   Si       0.24864    0.60562    0.91874    1.000
    Si2540   Si       0.34851    0.51691    0.93114    1.000
    N2541    N        0.31764    0.54761    0.92798    1.000
    Si2542   Si       0.44564    0.57675    0.90083    1.000
    N2543    N        0.45244    0.53539    0.91473    1.000
    N2544    N        0.48048    0.60193    0.88582    1.000
    N2545    N        0.38793    0.53379    0.92618    1.000
    Si2546   Si       0.41913    0.50822    0.91047    1.000
    N2547    N        0.34690    0.66186    0.91154    1.000
    N2548    N        0.35370    0.73392    0.90853    1.000
    Si2549   Si       0.31335    0.64659    0.93374    1.000
    N2550    N        0.40979    0.69224    0.90698    1.000
    Si2551   Si       0.48501    0.64427    0.89553    1.000
    Si2552   Si       0.36934    0.69733    0.92569    1.000
    Si2553   Si       0.44518    0.69212    0.93156    1.000
    N2554    N        0.45975    0.65124    0.93079    1.000
    N2555    N        0.47429    0.71662    0.91002    1.000
    N2556    N        0.35391    0.59371    0.88676    1.000
    N2557    N        0.26933    0.55258    0.98355    1.000
    N2558    N        0.33631    0.61325    0.95361    1.000
    Si2559   Si       0.27690    0.54160    0.94236    1.000
    N2560    N        0.23992    0.61601    0.96027    1.000
    Si2561   Si       0.36670    0.61677    0.98218    1.000
    N2562    N        0.43671    0.52867    0.97563    1.000
    Si2563   Si       0.40819    0.55793    0.95783    1.000
    Si2564   Si       0.47412    0.52925    0.95211    1.000
    N2565    N        0.38299    0.57760    0.99023    1.000
    Si2566   Si       0.44002    0.62656    0.95981    1.000
    N2567    N        0.43068    0.58867    0.93932    1.000
    N2568    N        0.28599    0.67444    0.95138    1.000
    Si2569   Si       0.24757    0.66058    0.96233    1.000
    Si2570   Si       0.36132    0.75239    0.97671    1.000
    Si2571   Si       0.46500    0.74092    0.98748    1.000
    Si2572   Si       0.40427    0.68698    0.98847    1.000
    N2573    N        0.40008    0.64514    0.97082    1.000
    N2574    N        0.44316    0.70379    0.97331    1.000
    N2575    N        0.37562    0.71165    0.96522    1.000
    N2576    N        0.27423    0.79550    0.00917    1.000
    N2577    N        0.30360    0.87247    0.00445    1.000
    Si2578   Si       0.29484    0.87351    0.04768    1.000
    Si2579   Si       0.38018    0.00622    0.03022    1.000
    Si2580   Si       0.40101    0.77587    0.01874    1.000
    Si2581   Si       0.41698    0.84790    0.04403    1.000
    N2582    N        0.40762    0.80594    0.04736    1.000
    N2583    N        0.41718    0.85358    0.00164    1.000
    Si2584   Si       0.30694    0.97749    0.01002    1.000
    N2585    N        0.34952    0.97918    0.00821    1.000
    N2586    N        0.28650    0.97181    0.04846    1.000
    N2587    N        0.26123    0.90055    0.05371    1.000
    N2588    N        0.36523    0.91248    0.01546    1.000
    N2589    N        0.41052    0.97321    0.02791    1.000
    Si2590   Si       0.38373    0.94920    0.00127    1.000
    N2591    N        0.47101    0.94469    0.05437    1.000
    N2592    N        0.29061    0.83351    0.06950    1.000
    Si2593   Si       0.34596    0.77509    0.09904    1.000
    N2594    N        0.31726    0.76847    0.06786    1.000
    N2595    N        0.24644    0.77893    0.07083    1.000
    Si2596   Si       0.38303    0.97980    0.09845    1.000
    N2597    N        0.38932    0.76482    0.10058    1.000
    N2598    N        0.46128    0.77207    0.08075    1.000
    Si2599   Si       0.42121    0.78989    0.08533    1.000
    Si2600   Si       0.45938    0.84716    0.10181    1.000
    N2601    N        0.39609    0.87719    0.06638    1.000
    N2602    N        0.45961    0.84724    0.05664    1.000
    N2603    N        0.42698    0.97487    0.09644    1.000
    N2604    N        0.32402    0.89265    0.07214    1.000
    Si2605   Si       0.26605    0.94102    0.06924    1.000
    N2606    N        0.28923    0.93713    0.10721    1.000
    N2607    N        0.27025    0.00196    0.10970    1.000
    Si2608   Si       0.40340    0.90058    0.10451    1.000
    Si2609   Si       0.44421    0.97679    0.05748    1.000
    Si2610   Si       0.36381    0.90653    0.05802    1.000
    N2611    N        0.37883    0.93455    0.08506    1.000
    Si2612   Si       0.28303    0.79159    0.05350    1.000
    N2613    N        0.27844    0.80015    0.13060    1.000
    N2614    N        0.29853    0.86655    0.13289    1.000
    Si2615   Si       0.28796    0.75800    0.13793    1.000
    Si2616   Si       0.24093    0.81689    0.14455    1.000
    Si2617   Si       0.30520    0.82889    0.11143    1.000
    Si2618   Si       0.38337    0.83262    0.13149    1.000
    N2619    N        0.38038    0.87501    0.13257    1.000
    N2620    N        0.41303    0.92948    0.14960    1.000
    N2621    N        0.33669    0.92069    0.15171    1.000
    Si2622   Si       0.30080    0.97580    0.12442    1.000
    Si2623   Si       0.35838    0.99967    0.15696    1.000
    N2624    N        0.34317    0.98399    0.11892    1.000
    Si2625   Si       0.31568    0.90331    0.11583    1.000
    N2626    N        0.29419    0.97054    0.16832    1.000
    Si2627   Si       0.44992    0.90270    0.15059    1.000
    Si2628   Si       0.42905    0.96945    0.14096    1.000
    N2629    N        0.39897    0.99789    0.14571    1.000
    Si2630   Si       0.37708    0.90733    0.16321    1.000
    N2631    N        0.48486    0.92705    0.15155    1.000
    N2632    N        0.34722    0.81621    0.11215    1.000
    N2633    N        0.42240    0.82400    0.11221    1.000
    N2634    N        0.44641    0.88872    0.11116    1.000
    N2635    N        0.29901    0.86583    0.21109    1.000
    Si2636   Si       0.28131    0.87071    0.17254    1.000
    N2637    N        0.24339    0.84975    0.17490    1.000
    Si2638   Si       0.47191    0.84419    0.19495    1.000
    Si2639   Si       0.38006    0.81607    0.21610    1.000
    N2640    N        0.45578    0.80453    0.19449    1.000
    Si2641   Si       0.47490    0.77530    0.22432    1.000
    N2642    N        0.44379    0.87349    0.18067    1.000
    N2643    N        0.39912    0.77566    0.21830    1.000
    Si2644   Si       0.41877    0.78459    0.18079    1.000
    Si2645   Si       0.41805    0.87948    0.21721    1.000
    Si2646   Si       0.32785    0.94792    0.18631    1.000
    N2647    N        0.31774    0.93051    0.22364    1.000
    N2648    N        0.25933    0.90937    0.18620    1.000
    N2649    N        0.35968    0.97569    0.19497    1.000
    Si2650   Si       0.28337    0.90445    0.22485    1.000
    Si2651   Si       0.25526    0.95115    0.17518    1.000
    N2652    N        0.29881    0.00511    0.22988    1.000
    Si2653   Si       0.45743    0.99284    0.21437    1.000
    Si2654   Si       0.38069    0.99941    0.22645    1.000
    N2655    N        0.37866    0.90002    0.20734    1.000
    N2656    N        0.45681    0.98288    0.17184    1.000
    N2657    N        0.38671    0.81587    0.17191    1.000
    Si2658   Si       0.31524    0.84589    0.24542    1.000
    Si2659   Si       0.33756    0.77623    0.25671    1.000
    N2660    N        0.28562    0.83527    0.27660    1.000
    N2661    N        0.29999    0.76706    0.27511    1.000
    N2662    N        0.34184    0.81451    0.23751    1.000
    N2663    N        0.33274    0.88213    0.26547    1.000
    Si2664   Si       0.26420    0.87223    0.29040    1.000
    Si2665   Si       0.44382    0.82507    0.25687    1.000
    N2666    N        0.46453    0.78800    0.26306    1.000
    N2667    N        0.47485    0.85173    0.23835    1.000
    N2668    N        0.41059    0.84118    0.23443    1.000
    N2669    N        0.25861    0.90224    0.25920    1.000
    Si2670   Si       0.35372    0.91015    0.24178    1.000
    Si2671   Si       0.25579    0.99883    0.23582    1.000
    N2672    N        0.25030    0.97536    0.27159    1.000
    N2673    N        0.48580    0.97044    0.23825    1.000
    N2674    N        0.41848    0.98039    0.23292    1.000
    Si2675   Si       0.48157    0.89180    0.25153    1.000
    Si2676   Si       0.42154    0.94338    0.25840    1.000
    N2677    N        0.38194    0.93023    0.26866    1.000
    N2678    N        0.44166    0.90911    0.24021    1.000
    Si2679   Si       0.48126    0.97434    0.28081    1.000
    N2680    N        0.35891    0.00711    0.26459    1.000
    N2681    N        0.29142    0.77659    0.33921    1.000
    Si2682   Si       0.28155    0.79797    0.30028    1.000
    N2683    N        0.29039    0.88157    0.32318    1.000
    N2684    N        0.44437    0.95639    0.29403    1.000
    N2685    N        0.36543    0.79219    0.29479    1.000
    N2686    N        0.36819    0.85976    0.31992    1.000
    N2687    N        0.42953    0.83208    0.29864    1.000
    Si2688   Si       0.46059    0.85641    0.31905    1.000
    N2689    N        0.47271    0.77573    0.33544    1.000
    Si2690   Si       0.39085    0.82401    0.31525    1.000
    Si2691   Si       0.48499    0.76926    0.29481    1.000
    Si2692   Si       0.33302    0.88620    0.30942    1.000
    N2693    N        0.33793    0.92873    0.32043    1.000
    N2694    N        0.30042    0.99456    0.30835    1.000
    Si2695   Si       0.30931    0.95772    0.33320    1.000
    Si2696   Si       0.25450    0.99746    0.30792    1.000
    N2697    N        0.47727    0.88815    0.29449    1.000
    N2698    N        0.40376    0.92385    0.33739    1.000
    N2699    N        0.37572    0.98385    0.32835    1.000
    Si2700   Si       0.37570    0.94428    0.31033    1.000
    Si2701   Si       0.43875    0.95069    0.33927    1.000
    N2702    N        0.39864    0.79650    0.34974    1.000
    Si2703   Si       0.28432    0.80541    0.37357    1.000
    N2704    N        0.33002    0.81461    0.38199    1.000
    N2705    N        0.29275    0.87163    0.39697    1.000
    Si2706   Si       0.27073    0.87160    0.36111    1.000
    Si2707   Si       0.33498    0.85630    0.39448    1.000
    Si2708   Si       0.36269    0.78392    0.37311    1.000
    N2709    N        0.25835    0.78871    0.40621    1.000
    N2710    N        0.43446    0.86544    0.35426    1.000
    N2711    N        0.46845    0.80996    0.39408    1.000
    Si2712   Si       0.44174    0.84618    0.39320    1.000
    Si2713   Si       0.45209    0.99098    0.39960    1.000
    Si2714   Si       0.39310    0.88435    0.34721    1.000
    Si2715   Si       0.43184    0.76727    0.34836    1.000
    N2716    N        0.36363    0.88587    0.37993    1.000
    N2717    N        0.32271    0.98318    0.36837    1.000
    Si2718   Si       0.29207    0.96194    0.39192    1.000
    N2719    N        0.27327    0.94711    0.35523    1.000
    N2720    N        0.37968    0.96264    0.40119    1.000
    N2721    N        0.44390    0.99064    0.35545    1.000
    Si2722   Si       0.36436    0.98848    0.37085    1.000
    Si2723   Si       0.47099    0.91744    0.39766    1.000
    N2724    N        0.47154    0.92599    0.35289    1.000
    Si2725   Si       0.36096    0.92291    0.40702    1.000
    N2726    N        0.25829    0.83062    0.35102    1.000
    N2727    N        0.34388    0.85787    0.43702    1.000
    N2728    N        0.33546    0.76491    0.46168    1.000
    Si2729   Si       0.39436    0.79842    0.43349    1.000
    N2730    N        0.43281    0.78104    0.44459    1.000
    Si2731   Si       0.38899    0.86240    0.44184    1.000
    Si2732   Si       0.46093    0.77054    0.41546    1.000
    N2733    N        0.45530    0.88132    0.41540    1.000
    N2734    N        0.40274    0.83447    0.41135    1.000
    N2735    N        0.37381    0.76837    0.41143    1.000
    Si2736   Si       0.46536    0.87813    0.46274    1.000
    N2737    N        0.26950    0.98469    0.42058    1.000
    N2738    N        0.25373    0.91938    0.42799    1.000
    Si2739   Si       0.29490    0.90118    0.42896    1.000
    Si2740   Si       0.25134    0.95739    0.45169    1.000
    N2741    N        0.35640    0.00558    0.45621    1.000
    N2742    N        0.31898    0.93233    0.41153    1.000
    N2743    N        0.40209    0.96513    0.46708    1.000
    N2744    N        0.39048    0.90592    0.43428    1.000
    Si2745   Si       0.42251    0.93321    0.44677    1.000
    N2746    N        0.44677    0.94892    0.41347    1.000
    Si2747   Si       0.39137    0.99041    0.43359    1.000
    N2748    N        0.30842    0.82184    0.49201    1.000
    Si2749   Si       0.32514    0.85980    0.47585    1.000
    Si2750   Si       0.34406    0.79668    0.48750    1.000
    Si2751   Si       0.27905    0.80118    0.51748    1.000
    N2752    N        0.35333    0.87047    0.50585    1.000
    N2753    N        0.24125    0.81968    0.50912    1.000
    Si2754   Si       0.49079    0.95069    0.48696    1.000
    N2755    N        0.47720    0.86955    0.50784    1.000
    Si2756   Si       0.41064    0.83150    0.49911    1.000
    N2757    N        0.44418    0.80106    0.50574    1.000
    Si2758   Si       0.47885    0.82635    0.51737    1.000
    N2759    N        0.38111    0.81252    0.47367    1.000
    N2760    N        0.42396    0.85963    0.46941    1.000
    Si2761   Si       0.43110    0.76260    0.48448    1.000
    N2762    N        0.26870    0.95645    0.49125    1.000
    Si2763   Si       0.25300    0.98758    0.51837    1.000
    N2764    N        0.33956    0.95135    0.50454    1.000
    Si2765   Si       0.29910    0.92561    0.50430    1.000
    N2766    N        0.26621    0.89537    0.51951    1.000
    N2767    N        0.30641    0.89882    0.47010    1.000
    Si2768   Si       0.36615    0.98187    0.49176    1.000
    N2769    N        0.46022    0.92196    0.47130    1.000
    N2770    N        0.29072    0.80951    0.55866    1.000
    Si2771   Si       0.33266    0.79815    0.56437    1.000
    N2772    N        0.35033    0.83910    0.57076    1.000
    Si2773   Si       0.26604    0.83689    0.58267    1.000
    Si2774   Si       0.37063    0.86792    0.54416    1.000
    Si2775   Si       0.43640    0.85272    0.56992    1.000
    N2776    N        0.40891    0.84887    0.53807    1.000
    N2777    N        0.47431    0.83129    0.56257    1.000
    N2778    N        0.27428    0.99677    0.55562    1.000
    Si2779   Si       0.27111    0.89933    0.56223    1.000
    N2780    N        0.30503    0.92944    0.55304    1.000
    Si2781   Si       0.34686    0.93996    0.54659    1.000
    Si2782   Si       0.28426    0.96039    0.57852    1.000
    N2783    N        0.35343    0.96974    0.57935    1.000
    N2784    N        0.24743    0.93194    0.58110    1.000
    Si2785   Si       0.48391    0.90254    0.53852    1.000
    N2786    N        0.38068    0.00475    0.52683    1.000
    Si2787   Si       0.45932    0.97673    0.54960    1.000
    Si2788   Si       0.39011    0.99317    0.57229    1.000
    N2789    N        0.41979    0.96295    0.56197    1.000
    Si2790   Si       0.41465    0.92124    0.57519    1.000
    N2791    N        0.48289    0.94642    0.52943    1.000
    N2792    N        0.37533    0.90804    0.55856    1.000
    N2793    N        0.44834    0.89483    0.56455    1.000
    N2794    N        0.34560    0.77793    0.52786    1.000
    Si2795   Si       0.32950    0.85334    0.60654    1.000
    N2796    N        0.31827    0.81686    0.62840    1.000
    N2797    N        0.34342    0.76816    0.59428    1.000
    N2798    N        0.25077    0.83479    0.62396    1.000
    Si2799   Si       0.34586    0.78274    0.63566    1.000
    N2800    N        0.34951    0.88034    0.63304    1.000
    N2801    N        0.29379    0.87032    0.58919    1.000
    N2802    N        0.45433    0.78389    0.60336    1.000
    N2803    N        0.41626    0.85249    0.60719    1.000
    Si2804   Si       0.42335    0.77460    0.63244    1.000
    N2805    N        0.47412    0.87100    0.62904    1.000
    Si2806   Si       0.39207    0.88241    0.62823    1.000
    N2807    N        0.41097    0.91963    0.61717    1.000
    Si2808   Si       0.34149    0.97180    0.62045    1.000
    N2809    N        0.29814    0.96304    0.61759    1.000
    N2810    N        0.39602    0.98839    0.62300    1.000
    Si2811   Si       0.48823    0.97356    0.62210    1.000
    N2812    N        0.47215    0.99316    0.58716    1.000
    Si2813   Si       0.49000    0.79464    0.58120    1.000
    N2814    N        0.28494    0.84372    0.68256    1.000
    N2815    N        0.26764    0.77625    0.66051    1.000
    Si2816   Si       0.29903    0.76090    0.68781    1.000
    Si2817   Si       0.28181    0.81703    0.65003    1.000
    Si2818   Si       0.26718    0.88385    0.69133    1.000
    N2819    N        0.44257    0.81531    0.66846    1.000
    Si2820   Si       0.40431    0.80290    0.68720    1.000
    Si2821   Si       0.47034    0.78394    0.68477    1.000
    N2822    N        0.41018    0.87398    0.66958    1.000
    N2823    N        0.38537    0.79277    0.64970    1.000
    Si2824   Si       0.45376    0.94882    0.69371    1.000
    N2825    N        0.28350    0.99819    0.67299    1.000
    N2826    N        0.35075    0.94588    0.65563    1.000
    N2827    N        0.28777    0.91557    0.66854    1.000
    Si2828   Si       0.27653    0.95698    0.65426    1.000
    Si2829   Si       0.32912    0.90659    0.65926    1.000
    N2830    N        0.47646    0.91122    0.68950    1.000
    Si2831   Si       0.36982    0.94094    0.69477    1.000
    N2832    N        0.41109    0.94262    0.68521    1.000
    N2833    N        0.45808    0.96497    0.65118    1.000
    Si2834   Si       0.43928    0.85226    0.64623    1.000
    Si2835   Si       0.41691    0.95341    0.64195    1.000
    Si2836   Si       0.28755    0.83343    0.72593    1.000
    Si2837   Si       0.34854    0.81080    0.73202    1.000
    N2838    N        0.25845    0.80792    0.74913    1.000
    N2839    N        0.27248    0.87551    0.73379    1.000
    N2840    N        0.31530    0.79378    0.71343    1.000
    N2841    N        0.32667    0.84520    0.75277    1.000
    N2842    N        0.45230    0.86664    0.74788    1.000
    N2843    N        0.41150    0.76887    0.71368    1.000
    N2844    N        0.48192    0.80216    0.72238    1.000
    Si2845   Si       0.40773    0.77216    0.75646    1.000
    Si2846   Si       0.46788    0.82554    0.75507    1.000
    N2847    N        0.37871    0.83069    0.70831    1.000
    Si2848   Si       0.34419    0.88600    0.74332    1.000
    N2849    N        0.35172    0.96218    0.72630    1.000
    N2850    N        0.28575    0.96892    0.73238    1.000
    Si2851   Si       0.24568    0.96695    0.75145    1.000
    Si2852   Si       0.31836    0.95504    0.75644    1.000
    Si2853   Si       0.29037    0.00785    0.71591    1.000
    Si2854   Si       0.36481    0.00408    0.73064    1.000
    Si2855   Si       0.48646    0.00003    0.73867    1.000
    N2856    N        0.38734    0.88572    0.74546    1.000
    N2857    N        0.46658    0.96226    0.73214    1.000
    Si2858   Si       0.48628    0.88684    0.72625    1.000
    Si2859   Si       0.38672    0.87254    0.70405    1.000
    N2860    N        0.34931    0.89818    0.69965    1.000
    N2861    N        0.27853    0.86302    0.80339    1.000
    N2862    N        0.31288    0.80190    0.80594    1.000
    Si2863   Si       0.27407    0.78853    0.78732    1.000
    Si2864   Si       0.35238    0.78388    0.80588    1.000
    Si2865   Si       0.31710    0.84460    0.79759    1.000
    N2866    N        0.41250    0.85992    0.80345    1.000
    Si2867   Si       0.42009    0.81805    0.80808    1.000
    N2868    N        0.43359    0.80406    0.77042    1.000
    N2869    N        0.36766    0.78748    0.76304    1.000
    N2870    N        0.32223    0.98052    0.79049    1.000
    N2871    N        0.25284    0.99435    0.78519    1.000
    Si2872   Si       0.27830    0.89460    0.77175    1.000
    Si2873   Si       0.28583    0.99266    0.81249    1.000
    N2874    N        0.24843    0.92670    0.76946    1.000
    N2875    N        0.31877    0.91175    0.76540    1.000
    Si2876   Si       0.36197    0.99054    0.80479    1.000
    N2877    N        0.38706    0.00110    0.76760    1.000
    Si2878   Si       0.42199    0.88608    0.77112    1.000
    N2879    N        0.43535    0.92501    0.78888    1.000
    Si2880   Si       0.47254    0.94144    0.77173    1.000
    Si2881   Si       0.25687    0.84167    0.83469    1.000
    N2882    N        0.34514    0.77500    0.85860    1.000
    N2883    N        0.28622    0.84461    0.86728    1.000
    N2884    N        0.34273    0.86527    0.82820    1.000
    Si2885   Si       0.31666    0.87634    0.86199    1.000
    Si2886   Si       0.30221    0.77308    0.85346    1.000
    N2887    N        0.25287    0.79767    0.82569    1.000
    Si2888   Si       0.44397    0.77123    0.86032    1.000
    Si2889   Si       0.38600    0.86660    0.83769    1.000
    N2890    N        0.45066    0.80517    0.83461    1.000
    Si2891   Si       0.37857    0.80584    0.87341    1.000
    N2892    N        0.39860    0.84369    0.87671    1.000
    N2893    N        0.38256    0.80892    0.82607    1.000
    N2894    N        0.40490    0.77095    0.87841    1.000
    N2895    N        0.31339    0.91977    0.85914    1.000
    N2896    N        0.26594    0.96864    0.84598    1.000
    N2897    N        0.32863    0.98799    0.86950    1.000
    Si2898   Si       0.34682    0.94817    0.86214    1.000
    Si2899   Si       0.28119    0.94210    0.87625    1.000
    Si2900   Si       0.48556    0.97982    0.83465    1.000
    N2901    N        0.37699    0.95545    0.82797    1.000
    Si2902   Si       0.41751    0.93638    0.82936    1.000
    N2903    N        0.44509    0.96718    0.84684    1.000
    N2904    N        0.40691    0.90239    0.85657    1.000
    Si2905   Si       0.27835    0.82332    0.90242    1.000
    N2906    N        0.29230    0.77736    0.89578    1.000
    Si2907   Si       0.33086    0.76954    0.91618    1.000
    N2908    N        0.34046    0.87355    0.90050    1.000
    N2909    N        0.35570    0.80601    0.91371    1.000
    Si2910   Si       0.25331    0.76569    0.91355    1.000
    Si2911   Si       0.33888    0.84190    0.92954    1.000
    N2912    N        0.47249    0.78333    0.89271    1.000
    Si2913   Si       0.46415    0.80603    0.93074    1.000
    Si2914   Si       0.41892    0.87997    0.89200    1.000
    N2915    N        0.46287    0.87921    0.89210    1.000
    Si2916   Si       0.31519    0.99398    0.91164    1.000
    N2917    N        0.29391    0.95670    0.91516    1.000
    Si2918   Si       0.36041    0.90552    0.92235    1.000
    N2919    N        0.40148    0.89611    0.92703    1.000
    Si2920   Si       0.38037    0.97386    0.92756    1.000
    N2921    N        0.36274    0.94340    0.90113    1.000
    Si2922   Si       0.44577    0.97613    0.88968    1.000
    N2923    N        0.44960    0.94188    0.91539    1.000
    N2924    N        0.40740    0.99618    0.90072    1.000
    Si2925   Si       0.48301    0.91262    0.91815    1.000
    N2926    N        0.47565    0.00156    0.91695    1.000
    N2927    N        0.24110    0.92810    0.88550    1.000
    Si2928   Si       0.27562    0.86434    0.96883    1.000
    N2929    N        0.35909    0.85181    0.96554    1.000
    N2930    N        0.32149    0.76463    0.96002    1.000
    Si2931   Si       0.28548    0.76116    0.98383    1.000
    N2932    N        0.25079    0.75887    0.95688    1.000
    N2933    N        0.29577    0.83887    0.93830    1.000
    N2934    N        0.38906    0.78823    0.97742    1.000
    Si2935   Si       0.39648    0.83118    0.97030    1.000
    N2936    N        0.46588    0.76998    0.95537    1.000
    Si2937   Si       0.45148    0.85847    0.97361    1.000
    N2938    N        0.43200    0.83371    0.94428    1.000
    N2939    N        0.48346    0.83860    0.99154    1.000
    Si2940   Si       0.34434    0.88540    0.98803    1.000
    Si2941   Si       0.24017    0.96979    0.97963    1.000
    N2942    N        0.26798    0.89936    0.94371    1.000
    Si2943   Si       0.29598    0.93160    0.95013    1.000
    N2944    N        0.33430    0.91291    0.95571    1.000
    N2945    N        0.28097    0.95417    0.98439    1.000
    N2946    N        0.34728    0.99959    0.93936    1.000
    Si2947   Si       0.42761    0.92305    0.94859    1.000
    N2948    N        0.40080    0.95380    0.96260    1.000
    N2949    N        0.46391    0.89742    0.95713    1.000
    N2950    N        0.59981    0.11945    0.02080    1.000
    Si2951   Si       0.59789    0.07470    0.01644    1.000
    Si2952   Si       0.55096    0.02256    0.03804    1.000
    N2953    N        0.51818    0.03622    0.01223    1.000
    N2954    N        0.57447    0.05883    0.04782    1.000
    Si2955   Si       0.56984    0.13315    0.04701    1.000
    N2956    N        0.64181    0.06914    0.01977    1.000
    Si2957   Si       0.71142    0.03880    0.02999    1.000
    N2958    N        0.53049    0.13576    0.02672    1.000
    Si2959   Si       0.59249    0.19571    0.01822    1.000
    Si2960   Si       0.50013    0.15888    0.04794    1.000
    N2961    N        0.50128    0.25295    0.02934    1.000
    N2962    N        0.55763    0.21355    0.99832    1.000
    Si2963   Si       0.52910    0.24510    0.99724    1.000
    N2964    N        0.57910    0.17644    0.05286    1.000
    N2965    N        0.73915    0.16295    0.01962    1.000
    N2966    N        0.69645    0.21663    0.01790    1.000
    Si2967   Si       0.69906    0.17685    0.03034    1.000
    Si2968   Si       0.65876    0.23748    0.01239    1.000
    N2969    N        0.66184    0.15487    0.03851    1.000
    N2970    N        0.62174    0.22446    0.03186    1.000
    Si2971   Si       0.63601    0.14109    0.00610    1.000
    Si2972   Si       0.73218    0.24040    0.03115    1.000
    N2973    N        0.56884    0.11503    0.08563    1.000
    Si2974   Si       0.58330    0.07420    0.08702    1.000
    N2975    N        0.49194    0.06218    0.10689    1.000
    Si2976   Si       0.49162    0.02207    0.08936    1.000
    N2977    N        0.69125    0.05977    0.06531    1.000
    N2978    N        0.67721    0.11470    0.10130    1.000
    N2979    N        0.62664    0.07440    0.09379    1.000
    Si2980   Si       0.70912    0.08583    0.09399    1.000
    Si2981   Si       0.64769    0.05321    0.06254    1.000
    N2982    N        0.63077    0.01414    0.05897    1.000
    N2983    N        0.51336    0.19450    0.06888    1.000
    N2984    N        0.57277    0.23112    0.08827    1.000
    Si2985   Si       0.55581    0.19075    0.08550    1.000
    Si2986   Si       0.61336    0.23857    0.07176    1.000
    N2987    N        0.73268    0.24010    0.07422    1.000
    N2988    N        0.63567    0.16470    0.10604    1.000
    N2989    N        0.70775    0.17114    0.07473    1.000
    Si2990   Si       0.66905    0.15082    0.08005    1.000
    Si2991   Si       0.73205    0.20139    0.09331    1.000
    N2992    N        0.64223    0.23205    0.10474    1.000
    N2993    N        0.53451    0.10832    0.14727    1.000
    Si2994   Si       0.52715    0.06761    0.13441    1.000
    N2995    N        0.60305    0.11941    0.14597    1.000
    Si2996   Si       0.49696    0.12445    0.16690    1.000
    N2997    N        0.56581    0.05117    0.11873    1.000
    Si2998   Si       0.56590    0.12884    0.12671    1.000
    Si2999   Si       0.58256    0.01354    0.13568    1.000
    Si3000   Si       0.63729    0.10346    0.12343    1.000
    N3001    N        0.65502    0.08946    0.16179    1.000
    N3002    N        0.71901    0.07453    0.13688    1.000
    Si3003   Si       0.49724    0.20985    0.16115    1.000
    N3004    N        0.53306    0.22766    0.14614    1.000
    N3005    N        0.60440    0.21435    0.15557    1.000
    Si3006   Si       0.56339    0.19929    0.15924    1.000
    N3007    N        0.55835    0.17098    0.12562    1.000
    N3008    N        0.66752    0.18875    0.16351    1.000
    Si3009   Si       0.63785    0.19697    0.13172    1.000
    N3010    N        0.69082    0.25446    0.14291    1.000
    N3011    N        0.72991    0.19616    0.13817    1.000
    Si3012   Si       0.70118    0.21690    0.16313    1.000
    N3013    N        0.51683    0.04236    0.16941    1.000
    Si3014   Si       0.69755    0.08801    0.17228    1.000
    Si3015   Si       0.58937    0.04104    0.21312    1.000
    N3016    N        0.59438    0.08190    0.20507    1.000
    Si3017   Si       0.53809    0.01598    0.19326    1.000
    N3018    N        0.57893    0.01628    0.17966    1.000
    Si3019   Si       0.67284    0.15979    0.19609    1.000
    Si3020   Si       0.73694    0.03075    0.19985    1.000
    Si3021   Si       0.62157    0.10746    0.18442    1.000
    N3022    N        0.70776    0.06229    0.20686    1.000
    N3023    N        0.70435    0.13032    0.18595    1.000
    N3024    N        0.64237    0.13345    0.21269    1.000
    N3025    N        0.72457    0.23864    0.19548    1.000
    N3026    N        0.49426    0.21922    0.20530    1.000
    Si3027   Si       0.51957    0.18461    0.21208    1.000
    N3028    N        0.55995    0.19993    0.20349    1.000
    N3029    N        0.50705    0.16586    0.17645    1.000
    Si3030   Si       0.61194    0.25369    0.17280    1.000
    N3031    N        0.64656    0.25834    0.20080    1.000
    N3032    N        0.66888    0.18988    0.22656    1.000
    N3033    N        0.54837    0.03494    0.23190    1.000
    Si3034   Si       0.55366    0.04593    0.27260    1.000
    N3035    N        0.58609    0.07224    0.28096    1.000
    N3036    N        0.51632    0.06018    0.28661    1.000
    Si3037   Si       0.65027    0.22900    0.23233    1.000
    N3038    N        0.61551    0.02551    0.24506    1.000
    N3039    N        0.68756    0.01658    0.25806    1.000
    Si3040   Si       0.62541    0.05523    0.27475    1.000
    Si3041   Si       0.69378    0.05775    0.24990    1.000
    N3042    N        0.65806    0.07915    0.25692    1.000
    Si3043   Si       0.65177    0.12214    0.25397    1.000
    N3044    N        0.72493    0.07584    0.27452    1.000
    Si3045   Si       0.72898    0.11841    0.26533    1.000
    N3046    N        0.62718    0.12801    0.28699    1.000
    N3047    N        0.54809    0.25063    0.26530    1.000
    N3048    N        0.51228    0.16129    0.24614    1.000
    Si3049   Si       0.52152    0.15537    0.28571    1.000
    Si3050   Si       0.57466    0.23332    0.23097    1.000
    N3051    N        0.61310    0.23096    0.25348    1.000
    Si3052   Si       0.72969    0.23534    0.23830    1.000
    N3053    N        0.68700    0.24462    0.25157    1.000
    N3054    N        0.69097    0.13960    0.26285    1.000
    N3055    N        0.73295    0.19592    0.25932    1.000
    Si3056   Si       0.69106    0.18433    0.26287    1.000
    Si3057   Si       0.50614    0.04812    0.33020    1.000
    Si3058   Si       0.59125    0.10734    0.30291    1.000
    Si3059   Si       0.52498    0.11415    0.33173    1.000
    N3060    N        0.55312    0.12765    0.30049    1.000
    N3061    N        0.52186    0.01003    0.34229    1.000
    Si3062   Si       0.66808    0.22544    0.32697    1.000
    N3063    N        0.63304    0.03482    0.31183    1.000
    N3064    N        0.71048    0.02967    0.32304    1.000
    N3065    N        0.73227    0.09354    0.34520    1.000
    N3066    N        0.58451    0.24838    0.32397    1.000
    N3067    N        0.60398    0.17989    0.32308    1.000
    N3068    N        0.52393    0.19227    0.30882    1.000
    N3069    N        0.50941    0.25009    0.33243    1.000
    Si3070   Si       0.61150    0.25632    0.29114    1.000
    Si3071   Si       0.51509    0.23219    0.28920    1.000
    N3072    N        0.66576    0.19066    0.29871    1.000
    Si3073   Si       0.64010    0.15928    0.31546    1.000
    Si3074   Si       0.73898    0.06209    0.31479    1.000
    N3075    N        0.70865    0.23023    0.34052    1.000
    N3076    N        0.53329    0.07677    0.35283    1.000
    N3077    N        0.60030    0.10257    0.34566    1.000
    Si3078   Si       0.59978    0.21429    0.34772    1.000
    Si3079   Si       0.57430    0.07517    0.37138    1.000
    N3080    N        0.59916    0.03895    0.37497    1.000
    Si3081   Si       0.53847    0.12649    0.40129    1.000
    Si3082   Si       0.69032    0.15378    0.37822    1.000
    N3083    N        0.66012    0.14097    0.35020    1.000
    N3084    N        0.71330    0.04325    0.39231    1.000
    Si3085   Si       0.63386    0.11144    0.37035    1.000
    Si3086   Si       0.70161    0.08239    0.37735    1.000
    N3087    N        0.66006    0.07652    0.36548    1.000
    N3088    N        0.70607    0.11902    0.40239    1.000
    Si3089   Si       0.63912    0.03946    0.35400    1.000
    Si3090   Si       0.70668    0.01119    0.36182    1.000
    Si3091   Si       0.52642    0.18650    0.35410    1.000
    N3092    N        0.53138    0.14326    0.36270    1.000
    N3093    N        0.56512    0.20227    0.37181    1.000
    N3094    N        0.64260    0.21808    0.35949    1.000
    N3095    N        0.72691    0.16365    0.35845    1.000
    Si3096   Si       0.65316    0.22828    0.40238    1.000
    Si3097   Si       0.72170    0.26052    0.37407    1.000
    N3098    N        0.61088    0.24339    0.40840    1.000
    N3099    N        0.67803    0.18657    0.40559    1.000
    N3100    N        0.50273    0.10951    0.42384    1.000
    Si3101   Si       0.56939    0.08088    0.45074    1.000
    N3102    N        0.53853    0.04960    0.45319    1.000
    Si3103   Si       0.50934    0.08418    0.45803    1.000
    N3104    N        0.61066    0.07462    0.45919    1.000
    N3105    N        0.56578    0.09441    0.40968    1.000
    Si3106   Si       0.73452    0.12768    0.43352    1.000
    N3107    N        0.67621    0.05108    0.45273    1.000
    Si3108   Si       0.62718    0.11416    0.45317    1.000
    Si3109   Si       0.70793    0.02677    0.43223    1.000
    Si3110   Si       0.63541    0.03853    0.45992    1.000
    N3111    N        0.73253    0.09627    0.46361    1.000
    N3112    N        0.62976    0.12141    0.41144    1.000
    N3113    N        0.52699    0.22600    0.41999    1.000
    N3114    N        0.55431    0.15899    0.42592    1.000
    N3115    N        0.58248    0.20659    0.45223    1.000
    Si3116   Si       0.56280    0.20211    0.41447    1.000
    Si3117   Si       0.53772    0.24975    0.45459    1.000
    Si3118   Si       0.61076    0.24176    0.45645    1.000
    N3119    N        0.72005    0.16094    0.45607    1.000
    Si3120   Si       0.68277    0.18815    0.45055    1.000
    N3121    N        0.65572    0.22563    0.44977    1.000
    Si3122   Si       0.57282    0.16600    0.46371    1.000
    N3123    N        0.54491    0.10665    0.47642    1.000
    Si3124   Si       0.55112    0.12733    0.51576    1.000
    N3125    N        0.70204    0.07233    0.51648    1.000
    Si3126   Si       0.69368    0.08369    0.47351    1.000
    N3127    N        0.66615    0.11567    0.47414    1.000
    N3128    N        0.62395    0.24895    0.49841    1.000
    N3129    N        0.55636    0.16908    0.50445    1.000
    N3130    N        0.52302    0.23238    0.49138    1.000
    N3131    N        0.60765    0.14540    0.47841    1.000
    Si3132   Si       0.53961    0.20567    0.52230    1.000
    Si3133   Si       0.66871    0.23267    0.49361    1.000
    N3134    N        0.70746    0.25430    0.48070    1.000
    Si3135   Si       0.68019    0.14295    0.50209    1.000
    N3136    N        0.67504    0.18556    0.49412    1.000
    N3137    N        0.71668    0.13992    0.52229    1.000
    Si3138   Si       0.60810    0.15571    0.52055    1.000
    Si3139   Si       0.51434    0.07286    0.55640    1.000
    N3140    N        0.58653    0.03130    0.54807    1.000
    N3141    N        0.51711    0.11347    0.53967    1.000
    N3142    N        0.58272    0.12804    0.54640    1.000
    N3143    N        0.51882    0.03712    0.53111    1.000
    N3144    N        0.72577    0.02083    0.55516    1.000
    N3145    N        0.65811    0.03546    0.55562    1.000
    Si3146   Si       0.71425    0.10230    0.54732    1.000
    N3147    N        0.68319    0.09963    0.57851    1.000
    Si3148   Si       0.69113    0.03277    0.52875    1.000
    Si3149   Si       0.62492    0.01335    0.53682    1.000
    N3150    N        0.51184    0.18726    0.55134    1.000
    N3151    N        0.56842    0.23391    0.53898    1.000
    Si3152   Si       0.61016    0.23904    0.53907    1.000
    Si3153   Si       0.49042    0.15036    0.53986    1.000
    Si3154   Si       0.54947    0.00874    0.54479    1.000
    N3155    N        0.67470    0.23150    0.53778    1.000
    Si3156   Si       0.66072    0.13716    0.57679    1.000
    N3157    N        0.67617    0.17772    0.57927    1.000
    N3158    N        0.65079    0.14106    0.53396    1.000
    N3159    N        0.61933    0.19537    0.53800    1.000
    Si3160   Si       0.66286    0.19002    0.53900    1.000
    Si3161   Si       0.67069    0.25860    0.57286    1.000
    Si3162   Si       0.53007    0.09548    0.62496    1.000
    N3163    N        0.56911    0.11419    0.62774    1.000
    N3164    N        0.58640    0.02858    0.63470    1.000
    Si3165   Si       0.58175    0.04406    0.59080    1.000
    N3166    N        0.49465    0.12021    0.62093    1.000
    Si3167   Si       0.59192    0.11410    0.58835    1.000
    N3168    N        0.54212    0.06696    0.59002    1.000
    N3169    N        0.61274    0.07534    0.58908    1.000
    N3170    N        0.66883    0.05189    0.62683    1.000
    Si3171   Si       0.65624    0.06558    0.58753    1.000
    N3172    N        0.58923    0.19710    0.61554    1.000
    Si3173   Si       0.57385    0.23356    0.63485    1.000
    N3174    N        0.49063    0.19120    0.61752    1.000
    N3175    N        0.73706    0.20220    0.59848    1.000
    Si3176   Si       0.69407    0.19839    0.61242    1.000
    N3177    N        0.67909    0.24165    0.61226    1.000
    N3178    N        0.62534    0.13999    0.60231    1.000
    Si3179   Si       0.61640    0.16958    0.63208    1.000
    N3180    N        0.65267    0.19219    0.64271    1.000
    N3181    N        0.55505    0.25943    0.60686    1.000
    Si3182   Si       0.59133    0.11150    0.66626    1.000
    N3183    N        0.52174    0.06986    0.66034    1.000
    Si3184   Si       0.60525    0.03937    0.67390    1.000
    Si3185   Si       0.49913    0.03205    0.65621    1.000
    Si3186   Si       0.54158    0.06953    0.70061    1.000
    N3187    N        0.56675    0.10487    0.70197    1.000
    N3188    N        0.57151    0.03701    0.70139    1.000
    N3189    N        0.71581    0.00629    0.65784    1.000
    N3190    N        0.62114    0.08022    0.66947    1.000
    Si3191   Si       0.66411    0.07817    0.66108    1.000
    N3192    N        0.64372    0.01889    0.67954    1.000
    N3193    N        0.68236    0.11755    0.65581    1.000
    Si3194   Si       0.72468    0.11342    0.65617    1.000
    N3195    N        0.68880    0.06226    0.69568    1.000
    N3196    N        0.73502    0.11859    0.69784    1.000
    Si3197   Si       0.67558    0.01286    0.64655    1.000
    N3198    N        0.49393    0.17788    0.67872    1.000
    N3199    N        0.54536    0.21830    0.66389    1.000
    Si3200   Si       0.50262    0.21280    0.65296    1.000
    N3201    N        0.60692    0.15141    0.67053    1.000
    Si3202   Si       0.65480    0.23546    0.64734    1.000
    Si3203   Si       0.67620    0.16130    0.66541    1.000
    N3204    N        0.71265    0.18011    0.65017    1.000
    N3205    N        0.61332    0.24814    0.64965    1.000
    N3206    N        0.67510    0.24034    0.68791    1.000
    N3207    N        0.48976    0.02045    0.69670    1.000
    N3208    N        0.50825    0.07713    0.72862    1.000
    Si3209   Si       0.67089    0.02600    0.71340    1.000
    N3210    N        0.65803    0.03639    0.75332    1.000
    Si3211   Si       0.71508    0.08587    0.72218    1.000
    N3212    N        0.69057    0.09916    0.75338    1.000
    Si3213   Si       0.56632    0.13541    0.73335    1.000
    Si3214   Si       0.50115    0.17512    0.72130    1.000
    N3215    N        0.60167    0.20796    0.71412    1.000
    N3216    N        0.54525    0.17104    0.71862    1.000
    N3217    N        0.55027    0.24780    0.72307    1.000
    N3218    N        0.60836    0.14166    0.74060    1.000
    Si3219   Si       0.51090    0.25215    0.74062    1.000
    N3220    N        0.49341    0.21346    0.73966    1.000
    Si3221   Si       0.55976    0.20955    0.70401    1.000
    Si3222   Si       0.60868    0.24015    0.74342    1.000
    N3223    N        0.66418    0.17436    0.70578    1.000
    Si3224   Si       0.62108    0.16962    0.70885    1.000
    N3225    N        0.71483    0.20945    0.74387    1.000
    N3226    N        0.65155    0.22967    0.75084    1.000
    Si3227   Si       0.67819    0.21270    0.72091    1.000
    N3228    N        0.50748    0.06414    0.80014    1.000
    Si3229   Si       0.50899    0.09495    0.76883    1.000
    Si3230   Si       0.58031    0.02524    0.80383    1.000
    N3231    N        0.54693    0.11794    0.76705    1.000
    N3232    N        0.57333    0.06618    0.81358    1.000
    N3233    N        0.59010    0.01059    0.76366    1.000
    Si3234   Si       0.63144    0.01009    0.77428    1.000
    Si3235   Si       0.71891    0.01271    0.81010    1.000
    N3236    N        0.63597    0.09170    0.79233    1.000
    Si3237   Si       0.67064    0.06818    0.77698    1.000
    N3238    N        0.70052    0.05208    0.80479    1.000
    N3239    N        0.62314    0.01941    0.81575    1.000
    N3240    N        0.70653    0.12405    0.81966    1.000
    N3241    N        0.59891    0.13750    0.81106    1.000
    Si3242   Si       0.55453    0.14025    0.80381    1.000
    N3243    N        0.59231    0.24956    0.78273    1.000
    Si3244   Si       0.62911    0.13255    0.77809    1.000
    Si3245   Si       0.70750    0.24858    0.76660    1.000
    N3246    N        0.62368    0.20159    0.81290    1.000
    Si3247   Si       0.69965    0.13463    0.77780    1.000
    N3248    N        0.66406    0.15999    0.77882    1.000
    Si3249   Si       0.65652    0.20301    0.78499    1.000
    N3250    N        0.68667    0.22523    0.80531    1.000
    Si3251   Si       0.60294    0.09530    0.82125    1.000
    N3252    N        0.54971    0.17907    0.82216    1.000
    N3253    N        0.73664    0.15015    0.76112    1.000
    Si3254   Si       0.53549    0.07411    0.83237    1.000
    N3255    N        0.53108    0.11906    0.83334    1.000
    N3256    N        0.53201    0.06168    0.87283    1.000
    N3257    N        0.72021    0.25958    0.84675    1.000
    Si3258   Si       0.48866    0.12793    0.83269    1.000
    N3259    N        0.61451    0.09157    0.86365    1.000
    Si3260   Si       0.72030    0.08387    0.82995    1.000
    N3261    N        0.71701    0.07732    0.87293    1.000
    Si3262   Si       0.52204    0.18937    0.85277    1.000
    Si3263   Si       0.59529    0.17691    0.83443    1.000
    N3264    N        0.51612    0.23249    0.86019    1.000
    N3265    N        0.58708    0.22167    0.86377    1.000
    Si3266   Si       0.60359    0.24066    0.82702    1.000
    N3267    N        0.60763    0.16478    0.87469    1.000
    Si3268   Si       0.55384    0.25189    0.86944    1.000
    Si3269   Si       0.71848    0.21743    0.83476    1.000
    N3270    N        0.70173    0.18926    0.86416    1.000
    Si3271   Si       0.72486    0.15501    0.84311    1.000
    N3272    N        0.56879    0.11568    0.90806    1.000
    N3273    N        0.59257    0.05009    0.91456    1.000
    Si3274   Si       0.55694    0.07286    0.90769    1.000
    Si3275   Si       0.60673    0.12527    0.88957    1.000
    N3276    N        0.50044    0.12347    0.90806    1.000
    Si3277   Si       0.50509    0.03018    0.88883    1.000
    Si3278   Si       0.49338    0.09292    0.93641    1.000
    Si3279   Si       0.66608    0.13597    0.93715    1.000
    N3280    N        0.70851    0.22210    0.92269    1.000
    N3281    N        0.64006    0.11261    0.91387    1.000
    Si3282   Si       0.63438    0.06946    0.90335    1.000
    Si3283   Si       0.72864    0.10819    0.90118    1.000
    N3284    N        0.71817    0.02661    0.92267    1.000
    Si3285   Si       0.70186    0.03848    0.88310    1.000
    N3286    N        0.65782    0.03809    0.88232    1.000
    Si3287   Si       0.53718    0.14328    0.91683    1.000
    Si3288   Si       0.58184    0.19222    0.89462    1.000
    N3289    N        0.54155    0.17629    0.88982    1.000
    N3290    N        0.58913    0.20636    0.93452    1.000
    N3291    N        0.70465    0.14122    0.91566    1.000
    N3292    N        0.65718    0.17927    0.92863    1.000
    Si3293   Si       0.69601    0.18337    0.90626    1.000
    Si3294   Si       0.54043    0.04061    0.97377    1.000
    N3295    N        0.58093    0.05186    0.98306    1.000
    Si3296   Si       0.61177    0.04007    0.95612    1.000
    Si3297   Si       0.67868    0.24981    0.93547    1.000
    Si3298   Si       0.73513    0.05107    0.95799    1.000
    N3299    N        0.66541    0.11968    0.97842    1.000
    N3300    N        0.64819    0.05952    0.94783    1.000
    Si3301   Si       0.66693    0.07629    0.98302    1.000
    N3302    N        0.70778    0.06092    0.99112    1.000
    N3303    N        0.51618    0.23207    0.95258    1.000
    N3304    N        0.53785    0.16109    0.95605    1.000
    Si3305   Si       0.55153    0.20376    0.95524    1.000
    Si3306   Si       0.51219    0.14562    0.98698    1.000
    N3307    N        0.65158    0.23476    0.96723    1.000
    N3308    N        0.61823    0.17516    0.98771    1.000
    Si3309   Si       0.63009    0.20070    0.95262    1.000
    N3310    N        0.52882    0.06685    0.94251    1.000
    Si3311   Si       0.50395    0.35802    0.02493    1.000
    N3312    N        0.55343    0.29677    0.04353    1.000
    N3313    N        0.60154    0.33353    0.00555    1.000
    Si3314   Si       0.56468    0.31248    0.00346    1.000
    Si3315   Si       0.51207    0.29017    0.05178    1.000
    Si3316   Si       0.61199    0.36289    0.03699    1.000
    Si3317   Si       0.71273    0.47581    0.01326    1.000
    Si3318   Si       0.67857    0.37011    0.03540    1.000
    N3319    N        0.66730    0.27879    0.02192    1.000
    N3320    N        0.73299    0.28157    0.01549    1.000
    N3321    N        0.69864    0.34040    0.00845    1.000
    Si3322   Si       0.69681    0.29846    0.99767    1.000
    N3323    N        0.52029    0.38897    0.05006    1.000
    Si3324   Si       0.60229    0.46322    0.04569    1.000
    Si3325   Si       0.54564    0.41724    0.02992    1.000
    N3326    N        0.58113    0.39649    0.01509    1.000
    N3327    N        0.64369    0.39006    0.01849    1.000
    N3328    N        0.70283    0.45465    0.04841    1.000
    N3329    N        0.71184    0.39891    0.01241    1.000
    N3330    N        0.62134    0.45560    0.00728    1.000
    Si3331   Si       0.64527    0.49065    0.99887    1.000
    Si3332   Si       0.71892    0.41622    0.05161    1.000
    N3333    N        0.64905    0.34293    0.05712    1.000
    N3334    N        0.59492    0.50504    0.05127    1.000
    N3335    N        0.58702    0.35093    0.07283    1.000
    Si3336   Si       0.58090    0.30704    0.07610    1.000
    N3337    N        0.50633    0.26643    0.09166    1.000
    Si3338   Si       0.58331    0.37442    0.10992    1.000
    N3339    N        0.56066    0.29502    0.10981    1.000
    N3340    N        0.61570    0.28275    0.06917    1.000
    N3341    N        0.68201    0.28864    0.08925    1.000
    Si3342   Si       0.72571    0.27831    0.09466    1.000
    Si3343   Si       0.65400    0.30042    0.05699    1.000
    N3344    N        0.69497    0.38865    0.07302    1.000
    Si3345   Si       0.51090    0.38484    0.09215    1.000
    Si3346   Si       0.55442    0.44038    0.09979    1.000
    N3347    N        0.51451    0.42676    0.10440    1.000
    N3348    N        0.58876    0.41700    0.11237    1.000
    N3349    N        0.56565    0.44451    0.05785    1.000
    N3350    N        0.68230    0.48324    0.10892    1.000
    N3351    N        0.63524    0.45349    0.07250    1.000
    Si3352   Si       0.67121    0.47539    0.06752    1.000
    Si3353   Si       0.62499    0.44017    0.11173    1.000
    N3354    N        0.54068    0.36526    0.11686    1.000
    Si3355   Si       0.54306    0.25472    0.11224    1.000
    Si3356   Si       0.54142    0.32500    0.13487    1.000
    N3357    N        0.50267    0.30865    0.14394    1.000
    Si3358   Si       0.60987    0.32301    0.16076    1.000
    N3359    N        0.61306    0.35929    0.13764    1.000
    N3360    N        0.56712    0.32203    0.17184    1.000
    N3361    N        0.72346    0.42183    0.12943    1.000
    N3362    N        0.62495    0.28559    0.14490    1.000
    N3363    N        0.68646    0.36612    0.14961    1.000
    Si3364   Si       0.65762    0.27051    0.12017    1.000
    Si3365   Si       0.64646    0.38271    0.15484    1.000
    N3366    N        0.54958    0.47564    0.12758    1.000
    Si3367   Si       0.50754    0.45425    0.13745    1.000
    Si3368   Si       0.58225    0.47484    0.15757    1.000
    Si3369   Si       0.64953    0.50547    0.12718    1.000
    N3370    N        0.61990    0.47423    0.13567    1.000
    Si3371   Si       0.70950    0.46419    0.13685    1.000
    N3372    N        0.65629    0.41459    0.12813    1.000
    Si3373   Si       0.69300    0.39361    0.11511    1.000
    Si3374   Si       0.72859    0.27590    0.17077    1.000
    Si3375   Si       0.54802    0.29446    0.20140    1.000
    N3376    N        0.50490    0.28507    0.20703    1.000
    N3377    N        0.49964    0.35739    0.20210    1.000
    N3378    N        0.57963    0.26264    0.19950    1.000
    N3379    N        0.63911    0.33099    0.19401    1.000
    N3380    N        0.70523    0.30736    0.19093    1.000
    Si3381   Si       0.64570    0.36565    0.21933    1.000
    Si3382   Si       0.66512    0.29687    0.20851    1.000
    N3383    N        0.68885    0.37341    0.21798    1.000
    Si3384   Si       0.70722    0.35004    0.18545    1.000
    Si3385   Si       0.61627    0.43554    0.21012    1.000
    Si3386   Si       0.54539    0.42648    0.20712    1.000
    N3387    N        0.57989    0.44488    0.18894    1.000
    N3388    N        0.51717    0.42567    0.17397    1.000
    N3389    N        0.55362    0.39004    0.22932    1.000
    Si3390   Si       0.48627    0.45905    0.22100    1.000
    N3391    N        0.70006    0.50031    0.22908    1.000
    Si3392   Si       0.72984    0.46390    0.21707    1.000
    Si3393   Si       0.67371    0.48667    0.19722    1.000
    N3394    N        0.63240    0.39918    0.19411    1.000
    N3395    N        0.70363    0.45976    0.18015    1.000
    N3396    N        0.63672    0.47418    0.21300    1.000
    N3397    N        0.51123    0.35582    0.27517    1.000
    Si3398   Si       0.55925    0.29347    0.27213    1.000
    N3399    N        0.60245    0.29677    0.27850    1.000
    N3400    N        0.55143    0.31817    0.23763    1.000
    Si3401   Si       0.52868    0.35367    0.23597    1.000
    N3402    N        0.62015    0.36290    0.25414    1.000
    N3403    N        0.66460    0.30870    0.25122    1.000
    Si3404   Si       0.63290    0.32756    0.27701    1.000
    Si3405   Si       0.68041    0.27877    0.27856    1.000
    N3406    N        0.72676    0.36552    0.27059    1.000
    Si3407   Si       0.58536    0.38820    0.25979    1.000
    Si3408   Si       0.54459    0.48406    0.26609    1.000
    N3409    N        0.60433    0.42602    0.25338    1.000
    N3410    N        0.58178    0.50369    0.25240    1.000
    N3411    N        0.52670    0.45898    0.23432    1.000
    Si3412   Si       0.71567    0.44341    0.28780    1.000
    N3413    N        0.71697    0.43203    0.24658    1.000
    Si3414   Si       0.73455    0.39160    0.23618    1.000
    Si3415   Si       0.53330    0.34724    0.31441    1.000
    N3416    N        0.54266    0.30468    0.31176    1.000
    Si3417   Si       0.54814    0.27038    0.33756    1.000
    N3418    N        0.56862    0.37402    0.29970    1.000
    N3419    N        0.49143    0.35642    0.33195    1.000
    N3420    N        0.65973    0.33969    0.30974    1.000
    N3421    N        0.72525    0.36050    0.33028    1.000
    Si3422   Si       0.70216    0.34195    0.29787    1.000
    N3423    N        0.71201    0.29897    0.29999    1.000
    Si3424   Si       0.58452    0.38607    0.34075    1.000
    Si3425   Si       0.54280    0.45231    0.33508    1.000
    N3426    N        0.49894    0.45828    0.33092    1.000
    N3427    N        0.56330    0.45689    0.29646    1.000
    Si3428   Si       0.60482    0.44636    0.29296    1.000
    N3429    N        0.61489    0.41849    0.32396    1.000
    N3430    N        0.71817    0.48587    0.29546    1.000
    Si3431   Si       0.65387    0.42517    0.34134    1.000
    N3432    N        0.62666    0.48496    0.30199    1.000
    N3433    N        0.68522    0.42643    0.31304    1.000
    Si3434   Si       0.72276    0.50708    0.33097    1.000
    Si3435   Si       0.64673    0.49896    0.33778    1.000
    Si3436   Si       0.71421    0.40603    0.34161    1.000
    N3437    N        0.65150    0.26034    0.30721    1.000
    N3438    N        0.55896    0.28303    0.37890    1.000
    Si3439   Si       0.54409    0.32366    0.38904    1.000
    N3440    N        0.50368    0.32783    0.40100    1.000
    N3441    N        0.55109    0.35207    0.35766    1.000
    Si3442   Si       0.60338    0.35120    0.40005    1.000
    N3443    N        0.61499    0.36045    0.35892    1.000
    Si3444   Si       0.72769    0.33544    0.36533    1.000
    N3445    N        0.68604    0.32528    0.37585    1.000
    N3446    N        0.62374    0.30949    0.39979    1.000
    Si3447   Si       0.65759    0.34885    0.35211    1.000
    Si3448   Si       0.66553    0.30046    0.40736    1.000
    N3449    N        0.68416    0.26240    0.39587    1.000
    N3450    N        0.56319    0.48343    0.36068    1.000
    Si3451   Si       0.54613    0.40532    0.39705    1.000
    N3452    N        0.50402    0.39515    0.39232    1.000
    Si3453   Si       0.56767    0.47785    0.40416    1.000
    N3454    N        0.55586    0.41652    0.35535    1.000
    Si3455   Si       0.68590    0.40412    0.40430    1.000
    Si3456   Si       0.64578    0.46780    0.40410    1.000
    N3457    N        0.64701    0.46308    0.36209    1.000
    Si3458   Si       0.72056    0.47068    0.39430    1.000
    N3459    N        0.67052    0.39081    0.36431    1.000
    N3460    N        0.71381    0.42994    0.38069    1.000
    Si3461   Si       0.58964    0.28230    0.40968    1.000
    N3462    N        0.57024    0.32836    0.42369    1.000
    N3463    N        0.51029    0.28374    0.45792    1.000
    N3464    N        0.57670    0.27290    0.45181    1.000
    Si3465   Si       0.56904    0.31651    0.46488    1.000
    Si3466   Si       0.61856    0.40328    0.43539    1.000
    N3467    N        0.63586    0.36295    0.42903    1.000
    N3468    N        0.67265    0.30755    0.45022    1.000
    Si3469   Si       0.64421    0.33667    0.46388    1.000
    Si3470   Si       0.51233    0.47468    0.43142    1.000
    N3471    N        0.54080    0.44454    0.41609    1.000
    N3472    N        0.60845    0.48020    0.42139    1.000
    Si3473   Si       0.61106    0.50392    0.45783    1.000
    N3474    N        0.58285    0.39270    0.41182    1.000
    N3475    N        0.68346    0.49162    0.41059    1.000
    N3476    N        0.65037    0.42742    0.41902    1.000
    N3477    N        0.70480    0.37925    0.43602    1.000
    Si3478   Si       0.51153    0.37238    0.49353    1.000
    N3479    N        0.54241    0.34037    0.48907    1.000
    N3480    N        0.60757    0.32784    0.48310    1.000
    Si3481   Si       0.49584    0.26703    0.49932    1.000
    Si3482   Si       0.60103    0.33298    0.52429    1.000
    N3483    N        0.66901    0.36167    0.49131    1.000
    N3484    N        0.70855    0.31331    0.50860    1.000
    Si3485   Si       0.70972    0.29659    0.47017    1.000
    N3486    N        0.73709    0.37987    0.50078    1.000
    Si3487   Si       0.54012    0.50078    0.49193    1.000
    Si3488   Si       0.50450    0.43597    0.50057    1.000
    Si3489   Si       0.57797    0.40381    0.50540    1.000
    N3490    N        0.53649    0.40669    0.49566    1.000
    N3491    N        0.58254    0.49104    0.48587    1.000
    N3492    N        0.51353    0.47176    0.47412    1.000
    N3493    N        0.60982    0.41069    0.47758    1.000
    Si3494   Si       0.66717    0.50417    0.50721    1.000
    N3495    N        0.64073    0.46994    0.50854    1.000
    Si3496   Si       0.70051    0.38772    0.47844    1.000
    Si3497   Si       0.64241    0.42688    0.50310    1.000
    N3498    N        0.70134    0.49050    0.48204    1.000
    N3499    N        0.68357    0.42594    0.48793    1.000
    Si3500   Si       0.70832    0.45559    0.51259    1.000
    N3501    N        0.50688    0.29412    0.53015    1.000
    Si3502   Si       0.67531    0.33774    0.52704    1.000
    N3503    N        0.56859    0.30947    0.54283    1.000
    N3504    N        0.50141    0.36014    0.53651    1.000
    N3505    N        0.59119    0.37373    0.53426    1.000
    Si3506   Si       0.53230    0.32735    0.52855    1.000
    Si3507   Si       0.55878    0.29539    0.58470    1.000
    N3508    N        0.69435    0.49122    0.54095    1.000
    N3509    N        0.51900    0.31383    0.59050    1.000
    N3510    N        0.62754    0.26459    0.57055    1.000
    Si3511   Si       0.72946    0.29253    0.54324    1.000
    N3512    N        0.63815    0.32444    0.54581    1.000
    N3513    N        0.69938    0.36030    0.55827    1.000
    N3514    N        0.69337    0.29391    0.56835    1.000
    Si3515   Si       0.62822    0.30705    0.58465    1.000
    Si3516   Si       0.73989    0.36111    0.53979    1.000
    N3517    N        0.71580    0.42631    0.54726    1.000
    Si3518   Si       0.60650    0.40725    0.55916    1.000
    N3519    N        0.59809    0.49917    0.56011    1.000
    Si3520   Si       0.55378    0.50099    0.57257    1.000
    Si3521   Si       0.49756    0.46007    0.57666    1.000
    N3522    N        0.58695    0.43713    0.53180    1.000
    Si3523   Si       0.59903    0.47624    0.52372    1.000
    N3524    N        0.64787    0.40984    0.54322    1.000
    Si3525   Si       0.68493    0.40154    0.56396    1.000
    N3526    N        0.49251    0.50258    0.58519    1.000
    N3527    N        0.54046    0.46078    0.58316    1.000
    N3528    N        0.59098    0.31681    0.60462    1.000
    Si3529   Si       0.50817    0.34113    0.62202    1.000
    Si3530   Si       0.69660    0.39750    0.63979    1.000
    N3531    N        0.54351    0.35201    0.64559    1.000
    N3532    N        0.72734    0.33277    0.61655    1.000
    N3533    N        0.65593    0.33004    0.60945    1.000
    Si3534   Si       0.69411    0.32948    0.59095    1.000
    N3535    N        0.72985    0.46752    0.61583    1.000
    Si3536   Si       0.56252    0.44001    0.61500    1.000
    N3537    N        0.53317    0.41619    0.63433    1.000
    N3538    N        0.59875    0.42403    0.59901    1.000
    N3539    N        0.63422    0.47487    0.63286    1.000
    N3540    N        0.73602    0.39874    0.62180    1.000
    N3541    N        0.66845    0.40605    0.60717    1.000
    Si3542   Si       0.63603    0.43066    0.62218    1.000
    Si3543   Si       0.58001    0.32990    0.64351    1.000
    N3544    N        0.57577    0.29838    0.67173    1.000
    N3545    N        0.61282    0.35196    0.66065    1.000
    Si3546   Si       0.61540    0.27976    0.67861    1.000
    N3547    N        0.50452    0.50902    0.64838    1.000
    N3548    N        0.72323    0.29331    0.67226    1.000
    N3549    N        0.65314    0.29841    0.67081    1.000
    N3550    N        0.68753    0.36179    0.66594    1.000
    Si3551   Si       0.72585    0.33455    0.66147    1.000
    Si3552   Si       0.65464    0.33733    0.65264    1.000
    Si3553   Si       0.68718    0.28373    0.69563    1.000
    N3554    N        0.56238    0.38735    0.70389    1.000
    Si3555   Si       0.60399    0.38741    0.68449    1.000
    Si3556   Si       0.53592    0.38831    0.66844    1.000
    Si3557   Si       0.54041    0.49782    0.66985    1.000
    Si3558   Si       0.60473    0.46587    0.66291    1.000
    N3559    N        0.59736    0.48758    0.69840    1.000
    N3560    N        0.56526    0.47261    0.64408    1.000
    N3561    N        0.61377    0.42396    0.66183    1.000
    N3562    N        0.69258    0.50230    0.66035    1.000
    N3563    N        0.73928    0.46106    0.69531    1.000
    N3564    N        0.69376    0.43052    0.66657    1.000
    Si3565   Si       0.71664    0.46689    0.65764    1.000
    N3566    N        0.54225    0.32361    0.72978    1.000
    Si3567   Si       0.49967    0.32066    0.73259    1.000
    Si3568   Si       0.55535    0.36525    0.74079    1.000
    Si3569   Si       0.56294    0.28818    0.71330    1.000
    N3570    N        0.60636    0.27722    0.72072    1.000
    N3571    N        0.49262    0.28199    0.71395    1.000
    N3572    N        0.71565    0.27107    0.72977    1.000
    N3573    N        0.68832    0.32738    0.72137    1.000
    Si3574   Si       0.67741    0.36829    0.70960    1.000
    N3575    N        0.63808    0.38792    0.71462    1.000
    Si3576   Si       0.56794    0.48233    0.73233    1.000
    Si3577   Si       0.49294    0.46252    0.72687    1.000
    N3578    N        0.53111    0.47855    0.70738    1.000
    N3579    N        0.73147    0.50411    0.75922    1.000
    Si3580   Si       0.70597    0.43442    0.70839    1.000
    N3581    N        0.70451    0.39620    0.72708    1.000
    Si3582   Si       0.62092    0.40032    0.75195    1.000
    N3583    N        0.68284    0.45919    0.73327    1.000
    Si3584   Si       0.70399    0.31592    0.76026    1.000
    Si3585   Si       0.58714    0.35380    0.80049    1.000
    N3586    N        0.55944    0.32103    0.79663    1.000
    Si3587   Si       0.55898    0.27881    0.79379    1.000
    Si3588   Si       0.51893    0.33652    0.79559    1.000
    N3589    N        0.52256    0.37251    0.76936    1.000
    N3590    N        0.58939    0.37589    0.76411    1.000
    N3591    N        0.52041    0.26429    0.78191    1.000
    N3592    N        0.68673    0.28477    0.78492    1.000
    N3593    N        0.69105    0.35327    0.78423    1.000
    N3594    N        0.62336    0.34145    0.82260    1.000
    Si3595   Si       0.48813    0.40105    0.77568    1.000
    N3596    N        0.48869    0.48573    0.76492    1.000
    Si3597   Si       0.59609    0.46850    0.78037    1.000
    Si3598   Si       0.51795    0.46473    0.79155    1.000
    N3599    N        0.49579    0.42871    0.80757    1.000
    N3600    N        0.55544    0.45503    0.76697    1.000
    N3601    N        0.58941    0.50741    0.75975    1.000
    Si3602   Si       0.66767    0.45275    0.77254    1.000
    N3603    N        0.69068    0.42195    0.79253    1.000
    N3604    N        0.66384    0.48709    0.79451    1.000
    N3605    N        0.62451    0.43755    0.77018    1.000
    Si3606   Si       0.71032    0.38998    0.77099    1.000
    N3607    N        0.50490    0.34855    0.83350    1.000
    Si3608   Si       0.53761    0.37214    0.85198    1.000
    N3609    N        0.56893    0.27125    0.83606    1.000
    Si3610   Si       0.59927    0.35539    0.86295    1.000
    N3611    N        0.57622    0.37972    0.83349    1.000
    N3612    N        0.61217    0.31569    0.88348    1.000
    N3613    N        0.68063    0.31306    0.84792    1.000
    Si3614   Si       0.64521    0.29246    0.86858    1.000
    Si3615   Si       0.68266    0.26973    0.82457    1.000
    Si3616   Si       0.71550    0.33106    0.87525    1.000
    N3617    N        0.63990    0.26253    0.83862    1.000
    Si3618   Si       0.66774    0.34610    0.82143    1.000
    N3619    N        0.68137    0.38174    0.84753    1.000
    N3620    N        0.60074    0.47588    0.82171    1.000
    Si3621   Si       0.56913    0.50037    0.84295    1.000
    N3622    N        0.51788    0.40524    0.86964    1.000
    Si3623   Si       0.69344    0.42195    0.83756    1.000
    N3624    N        0.72995    0.43366    0.86151    1.000
    N3625    N        0.66185    0.45109    0.85249    1.000
    Si3626   Si       0.64152    0.48215    0.83245    1.000
    N3627    N        0.52993    0.49361    0.82441    1.000
    Si3628   Si       0.57540    0.31576    0.90489    1.000
    N3629    N        0.55614    0.27461    0.90705    1.000
    N3630    N        0.55720    0.34409    0.87916    1.000
    N3631    N        0.68755    0.34394    0.90513    1.000
    N3632    N        0.65988    0.27488    0.90592    1.000
    Si3633   Si       0.67122    0.31141    0.92846    1.000
    Si3634   Si       0.66687    0.37974    0.88845    1.000
    N3635    N        0.62284    0.38265    0.88699    1.000
    Si3636   Si       0.72851    0.41949    0.90294    1.000
    Si3637   Si       0.52533    0.40816    0.91212    1.000
    Si3638   Si       0.58297    0.46559    0.91595    1.000
    N3639    N        0.56599    0.42367    0.91471    1.000
    N3640    N        0.56881    0.49461    0.88566    1.000
    Si3641   Si       0.60617    0.40820    0.91774    1.000
    N3642    N        0.50204    0.43698    0.93246    1.000
    N3643    N        0.62185    0.45000    0.91201    1.000
    N3644    N        0.73606    0.44614    0.93515    1.000
    N3645    N        0.68390    0.41474    0.90591    1.000
    Si3646   Si       0.66137    0.45073    0.89551    1.000
    N3647    N        0.68180    0.48700    0.91068    1.000
    N3648    N        0.50153    0.49827    0.93798    1.000
    N3649    N        0.55050    0.27824    0.97943    1.000
    Si3650   Si       0.53025    0.34226    0.95371    1.000
    Si3651   Si       0.60878    0.34895    0.96612    1.000
    N3652    N        0.57267    0.33811    0.94258    1.000
    N3653    N        0.50562    0.30833    0.94115    1.000
    Si3654   Si       0.53120    0.27393    0.94062    1.000
    N3655    N        0.51223    0.37869    0.94231    1.000
    N3656    N        0.69814    0.28598    0.95520    1.000
    N3657    N        0.63885    0.32450    0.95131    1.000
    Si3658   Si       0.73406    0.36601    0.99578    1.000
    N3659    N        0.52771    0.44070    0.99820    1.000
    N3660    N        0.56239    0.48025    0.95284    1.000
    Si3661   Si       0.52249    0.46286    0.96173    1.000
    N3662    N        0.61356    0.39199    0.95672    1.000
    Si3663   Si       0.70804    0.47911    0.94513    1.000
    N3664    N        0.68379    0.47642    0.98121    1.000
    N3665    N        0.53430    0.34355    0.99743    1.000
    Si3666   Si       0.61596    0.41428    0.99538    1.000
    N3667    N        0.51337    0.59205    0.02430    1.000
    Si3668   Si       0.56716    0.53681    0.04250    1.000
    N3669    N        0.60255    0.56575    0.04769    1.000
    Si3670   Si       0.60890    0.60056    0.02270    1.000
    N3671    N        0.57583    0.62707    0.02043    1.000
    N3672    N        0.55721    0.54090    0.00081    1.000
    Si3673   Si       0.49808    0.63511    0.01932    1.000
    Si3674   Si       0.68797    0.54451    0.02492    1.000
    N3675    N        0.64855    0.61717    0.02782    1.000
    N3676    N        0.72317    0.51965    0.01643    1.000
    N3677    N        0.66044    0.50891    0.03774    1.000
    N3678    N        0.55678    0.71123    0.03961    1.000
    Si3679   Si       0.60509    0.74364    0.00662    1.000
    Si3680   Si       0.52036    0.70240    0.01846    1.000
    Si3681   Si       0.59507    0.69477    0.05566    1.000
    Si3682   Si       0.71129    0.66200    0.00735    1.000
    N3683    N        0.62444    0.71018    0.02867    1.000
    N3684    N        0.69020    0.74119    0.04444    1.000
    N3685    N        0.70873    0.64528    0.04796    1.000
    Si3686   Si       0.66428    0.72232    0.01543    1.000
    N3687    N        0.54706    0.59785    0.08357    1.000
    N3688    N        0.53380    0.53515    0.07077    1.000
    Si3689   Si       0.51448    0.57587    0.06478    1.000
    Si3690   Si       0.53633    0.51659    0.11193    1.000
    Si3691   Si       0.55668    0.63365    0.06050    1.000
    N3692    N        0.64904    0.61176    0.09237    1.000
    Si3693   Si       0.72397    0.56735    0.09020    1.000
    N3694    N        0.64336    0.53969    0.09878    1.000
    Si3695   Si       0.62897    0.53296    0.05860    1.000
    Si3696   Si       0.67932    0.61490    0.05937    1.000
    N3697    N        0.69644    0.57344    0.05555    1.000
    N3698    N        0.59017    0.65779    0.07560    1.000
    Si3699   Si       0.56127    0.74650    0.06507    1.000
    N3700    N        0.59692    0.72673    0.08697    1.000
    N3701    N        0.52820    0.75545    0.09040    1.000
    N3702    N        0.51894    0.65190    0.05333    1.000
    Si3703   Si       0.61745    0.63977    0.10324    1.000
    N3704    N        0.72072    0.73150    0.11543    1.000
    Si3705   Si       0.72464    0.73767    0.07325    1.000
    N3706    N        0.59388    0.61551    0.13351    1.000
    N3707    N        0.56173    0.54707    0.13126    1.000
    N3708    N        0.52841    0.59745    0.14971    1.000
    Si3709   Si       0.56142    0.58975    0.12325    1.000
    Si3710   Si       0.60940    0.60361    0.17331    1.000
    N3711    N        0.69878    0.57400    0.12401    1.000
    Si3712   Si       0.70997    0.59860    0.15791    1.000
    N3713    N        0.64137    0.57851    0.15718    1.000
    N3714    N        0.66599    0.51654    0.16521    1.000
    Si3715   Si       0.65619    0.57705    0.11711    1.000
    Si3716   Si       0.59771    0.70553    0.12670    1.000
    N3717    N        0.50645    0.73989    0.16050    1.000
    N3718    N        0.55652    0.70636    0.13713    1.000
    Si3719   Si       0.52011    0.72682    0.12002    1.000
    N3720    N        0.61684    0.74024    0.14348    1.000
    N3721    N        0.49847    0.51069    0.13330    1.000
    N3722    N        0.68906    0.63551    0.15820    1.000
    N3723    N        0.62779    0.67327    0.12944    1.000
    Si3724   Si       0.65423    0.66036    0.16058    1.000
    N3725    N        0.67707    0.76084    0.16853    1.000
    N3726    N        0.49658    0.69081    0.11669    1.000
    N3727    N        0.51986    0.54146    0.19183    1.000
    N3728    N        0.58028    0.58021    0.19312    1.000
    Si3729   Si       0.50627    0.56424    0.22749    1.000
    N3730    N        0.58620    0.51117    0.18358    1.000
    Si3731   Si       0.56006    0.54460    0.17665    1.000
    N3732    N        0.49482    0.60591    0.21512    1.000
    N3733    N        0.62774    0.63849    0.19110    1.000
    N3734    N        0.63654    0.54224    0.22096    1.000
    N3735    N        0.69835    0.57142    0.19110    1.000
    Si3736   Si       0.65989    0.55383    0.18651    1.000
    N3737    N        0.55277    0.63519    0.22719    1.000
    N3738    N        0.51420    0.67166    0.18323    1.000
    Si3739   Si       0.51322    0.65395    0.22248    1.000
    N3740    N        0.55724    0.73512    0.19899    1.000
    Si3741   Si       0.59122    0.73060    0.22417    1.000
    N3742    N        0.72500    0.71394    0.18056    1.000
    Si3743   Si       0.68628    0.72799    0.19562    1.000
    Si3744   Si       0.63850    0.67118    0.21813    1.000
    N3745    N        0.65931    0.69492    0.18619    1.000
    Si3746   Si       0.60984    0.50814    0.21891    1.000
    N3747    N        0.60252    0.69046    0.23110    1.000
    Si3748   Si       0.53684    0.70582    0.17697    1.000
    N3749    N        0.54169    0.56757    0.25043    1.000
    N3750    N        0.60514    0.60228    0.25718    1.000
    Si3751   Si       0.60497    0.52014    0.28617    1.000
    N3752    N        0.51609    0.51111    0.28676    1.000
    Si3753   Si       0.53543    0.54954    0.28930    1.000
    Si3754   Si       0.56965    0.59659    0.23182    1.000
    N3755    N        0.67629    0.59373    0.25344    1.000
    Si3756   Si       0.63899    0.57410    0.25312    1.000
    N3757    N        0.73264    0.55569    0.25816    1.000
    Si3758   Si       0.67674    0.63329    0.27085    1.000
    Si3759   Si       0.72783    0.51329    0.26058    1.000
    Si3760   Si       0.71173    0.58202    0.23048    1.000
    Si3761   Si       0.57091    0.67000    0.24979    1.000
    N3762    N        0.58359    0.74703    0.26322    1.000
    N3763    N        0.53169    0.68941    0.24927    1.000
    N3764    N        0.71753    0.63642    0.28460    1.000
    Si3765   Si       0.69865    0.70009    0.26063    1.000
    N3766    N        0.66740    0.66841    0.24950    1.000
    N3767    N        0.68866    0.73786    0.23983    1.000
    N3768    N        0.59654    0.59565    0.32816    1.000
    N3769    N        0.57159    0.53530    0.30629    1.000
    N3770    N        0.52500    0.58406    0.31214    1.000
    Si3771   Si       0.55583    0.58470    0.34133    1.000
    Si3772   Si       0.49682    0.61669    0.31160    1.000
    Si3773   Si       0.60739    0.62302    0.29567    1.000
    Si3774   Si       0.62702    0.56531    0.33286    1.000
    N3775    N        0.64925    0.62964    0.30516    1.000
    Si3776   Si       0.73615    0.71026    0.32295    1.000
    N3777    N        0.63463    0.55176    0.29100    1.000
    N3778    N        0.62615    0.70347    0.32341    1.000
    Si3779   Si       0.51767    0.69889    0.29088    1.000
    Si3780   Si       0.56272    0.75535    0.30007    1.000
    N3781    N        0.50888    0.65704    0.30173    1.000
    N3782    N        0.55003    0.71755    0.31858    1.000
    Si3783   Si       0.58461    0.69260    0.31774    1.000
    N3784    N        0.58380    0.65959    0.29108    1.000
    N3785    N        0.69914    0.70762    0.30230    1.000
    N3786    N        0.65925    0.75711    0.34562    1.000
    Si3787   Si       0.73472    0.63647    0.32487    1.000
    Si3788   Si       0.66699    0.71605    0.33167    1.000
    Si3789   Si       0.57745    0.52050    0.34715    1.000
    N3790    N        0.54698    0.61841    0.36832    1.000
    N3791    N        0.55292    0.55140    0.36796    1.000
    Si3792   Si       0.51795    0.53528    0.38676    1.000
    Si3793   Si       0.50805    0.61273    0.38694    1.000
    N3794    N        0.49454    0.57152    0.39859    1.000
    Si3795   Si       0.62685    0.68888    0.36772    1.000
    N3796    N        0.72290    0.57377    0.38335    1.000
    Si3797   Si       0.68088    0.55189    0.37532    1.000
    N3798    N        0.65732    0.58399    0.35814    1.000
    N3799    N        0.61797    0.52893    0.35397    1.000
    N3800    N        0.58079    0.68237    0.35993    1.000
    Si3801   Si       0.58192    0.64255    0.37877    1.000
    Si3802   Si       0.54448    0.70813    0.36302    1.000
    N3803    N        0.55009    0.72568    0.40181    1.000
    N3804    N        0.50620    0.69182    0.36274    1.000
    Si3805   Si       0.69898    0.66322    0.38669    1.000
    Si3806   Si       0.64107    0.75568    0.38505    1.000
    N3807    N        0.70271    0.63744    0.35169    1.000
    N3808    N        0.62471    0.71758    0.40089    1.000
    N3809    N        0.72869    0.73717    0.35611    1.000
    N3810    N        0.67197    0.69030    0.36702    1.000
    N3811    N        0.62845    0.64352    0.37568    1.000
    N3812    N        0.68425    0.52046    0.34490    1.000
    Si3813   Si       0.66056    0.62742    0.34794    1.000
    N3814    N        0.54563    0.58613    0.43570    1.000
    N3815    N        0.59606    0.54256    0.44660    1.000
    Si3816   Si       0.57634    0.61539    0.44246    1.000
    Si3817   Si       0.55449    0.54374    0.44103    1.000
    Si3818   Si       0.50551    0.59375    0.45165    1.000
    N3819    N        0.53732    0.51034    0.41823    1.000
    N3820    N        0.61652    0.60093    0.42895    1.000
    Si3821   Si       0.70535    0.59228    0.41952    1.000
    N3822    N        0.73183    0.53312    0.44684    1.000
    Si3823   Si       0.63600    0.56538    0.44754    1.000
    N3824    N        0.67524    0.55717    0.42119    1.000
    Si3825   Si       0.68906    0.51973    0.44253    1.000
    N3826    N        0.72629    0.59881    0.45819    1.000
    N3827    N        0.68465    0.62942    0.41186    1.000
    Si3828   Si       0.64129    0.63466    0.41586    1.000
    Si3829   Si       0.55245    0.69071    0.42850    1.000
    N3830    N        0.51231    0.68913    0.44915    1.000
    N3831    N        0.57114    0.65188    0.42004    1.000
    N3832    N        0.58155    0.71005    0.45590    1.000
    N3833    N        0.49814    0.75635    0.43255    1.000
    N3834    N        0.49029    0.62813    0.42654    1.000
    Si3835   Si       0.62189    0.70126    0.44333    1.000
    Si3836   Si       0.73570    0.68832    0.45356    1.000
    N3837    N        0.63564    0.65946    0.45012    1.000
    N3838    N        0.65099    0.52492    0.46764    1.000
    N3839    N        0.72986    0.69022    0.40947    1.000
    N3840    N        0.51496    0.62238    0.48337    1.000
    Si3841   Si       0.54940    0.61927    0.51189    1.000
    N3842    N        0.52933    0.53945    0.47879    1.000
    N3843    N        0.58477    0.62580    0.48591    1.000
    Si3844   Si       0.51734    0.54820    0.51901    1.000
    N3845    N        0.65024    0.59249    0.48467    1.000
    Si3846   Si       0.62854    0.63110    0.48309    1.000
    Si3847   Si       0.66732    0.57423    0.51883    1.000
    Si3848   Si       0.49162    0.65622    0.46766    1.000
    N3849    N        0.69010    0.71137    0.52533    1.000
    Si3850   Si       0.72719    0.63368    0.48251    1.000
    N3851    N        0.52751    0.72901    0.49896    1.000
    Si3852   Si       0.57240    0.72769    0.49462    1.000
    N3853    N        0.64145    0.66156    0.51207    1.000
    Si3854   Si       0.66798    0.68777    0.49198    1.000
    Si3855   Si       0.71075    0.74412    0.50387    1.000
    N3856    N        0.70202    0.66759    0.47471    1.000
    Si3857   Si       0.49716    0.72620    0.46459    1.000
    N3858    N        0.65103    0.72153    0.46854    1.000
    N3859    N        0.54404    0.58092    0.53261    1.000
    N3860    N        0.60307    0.57093    0.57035    1.000
    Si3861   Si       0.55937    0.57700    0.57269    1.000
    N3862    N        0.53847    0.51068    0.53395    1.000
    Si3863   Si       0.62353    0.53330    0.56851    1.000
    N3864    N        0.66412    0.60731    0.54968    1.000
    Si3865   Si       0.68752    0.52746    0.56385    1.000
    N3866    N        0.65220    0.53687    0.53414    1.000
    Si3867   Si       0.62892    0.60655    0.57405    1.000
    N3868    N        0.70766    0.56161    0.53339    1.000
    Si3869   Si       0.70299    0.62750    0.55763    1.000
    N3870    N        0.60126    0.63995    0.56475    1.000
    N3871    N        0.51604    0.70663    0.56516    1.000
    N3872    N        0.54315    0.65325    0.54009    1.000
    Si3873   Si       0.56189    0.64848    0.58157    1.000
    Si3874   Si       0.60992    0.73272    0.55514    1.000
    Si3875   Si       0.51909    0.68908    0.52653    1.000
    N3876    N        0.59088    0.70566    0.52801    1.000
    Si3877   Si       0.53366    0.74255    0.57870    1.000
    N3878    N        0.57656    0.75045    0.57896    1.000
    N3879    N        0.63758    0.70317    0.57188    1.000
    Si3880   Si       0.68185    0.70575    0.56689    1.000
    N3881    N        0.69982    0.66656    0.57789    1.000
    Si3882   Si       0.61798    0.67369    0.54424    1.000
    N3883    N        0.73366    0.63024    0.52624    1.000
    Si3884   Si       0.50725    0.53707    0.61248    1.000
    Si3885   Si       0.51224    0.61213    0.62199    1.000
    N3886    N        0.54639    0.61032    0.59357    1.000
    N3887    N        0.54946    0.53844    0.59476    1.000
    N3888    N        0.71784    0.60876    0.59511    1.000
    N3889    N        0.65797    0.52672    0.59645    1.000
    N3890    N        0.64229    0.60652    0.61497    1.000
    Si3891   Si       0.72488    0.57132    0.61348    1.000
    N3892    N        0.72650    0.53591    0.58729    1.000
    N3893    N        0.56519    0.67374    0.61565    1.000
    N3894    N        0.51430    0.75526    0.61554    1.000
    N3895    N        0.69559    0.74027    0.58951    1.000
    Si3896   Si       0.67739    0.75409    0.62585    1.000
    N3897    N        0.63296    0.75362    0.62735    1.000
    Si3898   Si       0.72042    0.64780    0.61455    1.000
    Si3899   Si       0.65776    0.50992    0.63709    1.000
    N3900    N        0.51283    0.57388    0.64085    1.000
    N3901    N        0.56196    0.53500    0.67647    1.000
    Si3902   Si       0.53715    0.57004    0.67468    1.000
    N3903    N        0.56917    0.60024    0.68156    1.000
    Si3904   Si       0.60388    0.53220    0.68885    1.000
    N3905    N        0.68715    0.72180    0.65321    1.000
    Si3906   Si       0.72661    0.72832    0.66787    1.000
    N3907    N        0.63299    0.53970    0.65652    1.000
    N3908    N        0.64544    0.60498    0.67854    1.000
    Si3909   Si       0.71078    0.53754    0.67533    1.000
    N3910    N        0.69673    0.56650    0.64479    1.000
    N3911    N        0.71249    0.61912    0.70352    1.000
    Si3912   Si       0.65431    0.57603    0.64392    1.000
    Si3913   Si       0.54800    0.63660    0.68679    1.000
    N3914    N        0.51561    0.63921    0.65562    1.000
    N3915    N        0.57544    0.72919    0.65906    1.000
    N3916    N        0.50902    0.71276    0.67052    1.000
    N3917    N        0.56665    0.67597    0.68885    1.000
    Si3918   Si       0.54703    0.71647    0.69025    1.000
    Si3919   Si       0.58690    0.68672    0.65065    1.000
    Si3920   Si       0.61137    0.75570    0.66435    1.000
    Si3921   Si       0.49129    0.67423    0.65612    1.000
    N3922    N        0.73754    0.68778    0.68538    1.000
    Si3923   Si       0.64993    0.63659    0.64624    1.000
    N3924    N        0.62796    0.67415    0.65204    1.000
    N3925    N        0.63423    0.73138    0.69240    1.000
    N3926    N        0.69180    0.64918    0.64574    1.000
    Si3927   Si       0.65657    0.69907    0.67274    1.000
    Si3928   Si       0.70688    0.65888    0.68463    1.000
    N3929    N        0.51083    0.57344    0.71046    1.000
    Si3930   Si       0.53460    0.59323    0.74157    1.000
    N3931    N        0.60825    0.56241    0.72194    1.000
    Si3932   Si       0.60823    0.60325    0.70414    1.000
    N3933    N        0.54422    0.63385    0.72913    1.000
    N3934    N        0.68969    0.55300    0.71063    1.000
    N3935    N        0.66451    0.60739    0.74582    1.000
    Si3936   Si       0.72069    0.54708    0.74011    1.000
    Si3937   Si       0.67769    0.59446    0.70704    1.000
    Si3938   Si       0.49589    0.72034    0.74396    1.000
    N3939    N        0.53459    0.73459    0.72911    1.000
    Si3940   Si       0.57807    0.66606    0.73439    1.000
    N3941    N        0.59524    0.70586    0.74438    1.000
    N3942    N        0.49372    0.67571    0.74655    1.000
    N3943    N        0.61166    0.63944    0.72933    1.000
    Si3944   Si       0.62444    0.73734    0.73394    1.000
    N3945    N        0.67050    0.67373    0.70510    1.000
    Si3946   Si       0.65319    0.64918    0.73855    1.000
    N3947    N        0.66175    0.73848    0.75649    1.000
    Si3948   Si       0.59966    0.54955    0.76221    1.000
    N3949    N        0.56211    0.57277    0.76835    1.000
    N3950    N        0.50627    0.60726    0.77226    1.000
    Si3951   Si       0.55301    0.57391    0.81096    1.000
    N3952    N        0.68571    0.72839    0.81762    1.000
    N3953    N        0.63046    0.55754    0.79130    1.000
    N3954    N        0.69459    0.55275    0.77673    1.000
    Si3955   Si       0.66352    0.58383    0.78177    1.000
    Si3956   Si       0.69756    0.51249    0.79028    1.000
    N3957    N        0.66990    0.61342    0.81338    1.000
    Si3958   Si       0.58251    0.70556    0.78720    1.000
    N3959    N        0.56064    0.66736    0.77844    1.000
    N3960    N        0.55906    0.74331    0.79466    1.000
    Si3961   Si       0.52034    0.64837    0.76669    1.000
    N3962    N        0.50833    0.65739    0.81200    1.000
    Si3963   Si       0.51611    0.73629    0.81738    1.000
    N3964    N        0.48788    0.73023    0.78602    1.000
    N3965    N        0.62205    0.69928    0.80378    1.000
    N3966    N        0.73486    0.64616    0.81059    1.000
    N3967    N        0.67440    0.66829    0.77425    1.000
    Si3968   Si       0.69309    0.64853    0.80767    1.000
    Si3969   Si       0.66199    0.70899    0.78845    1.000
    Si3970   Si       0.55272    0.65222    0.82019    1.000
    N3971    N        0.57789    0.54278    0.82948    1.000
    Si3972   Si       0.58922    0.61161    0.86710    1.000
    Si3973   Si       0.51243    0.57887    0.86999    1.000
    Si3974   Si       0.50341    0.52251    0.83898    1.000
    N3975    N        0.51124    0.56682    0.82634    1.000
    N3976    N        0.56701    0.61258    0.82357    1.000
    Si3977   Si       0.62132    0.54909    0.83294    1.000
    N3978    N        0.62500    0.58478    0.85834    1.000
    N3979    N        0.64350    0.51828    0.85596    1.000
    Si3980   Si       0.65076    0.62138    0.85056    1.000
    N3981    N        0.72846    0.51378    0.82308    1.000
    Si3982   Si       0.73819    0.54279    0.85436    1.000
    N3983    N        0.56950    0.68505    0.84226    1.000
    N3984    N        0.51843    0.72088    0.85873    1.000
    Si3985   Si       0.61255    0.68787    0.84664    1.000
    N3986    N        0.68269    0.66395    0.84879    1.000
    N3987    N        0.61710    0.64720    0.85915    1.000
    Si3988   Si       0.54833    0.69551    0.87908    1.000
    N3989    N        0.71580    0.72010    0.87486    1.000
    N3990    N        0.64113    0.71716    0.86522    1.000
    Si3991   Si       0.68119    0.70790    0.85433    1.000
    N3992    N        0.51241    0.53607    0.87966    1.000
    N3993    N        0.60185    0.60612    0.91513    1.000
    Si3994   Si       0.56181    0.58798    0.92401    1.000
    Si3995   Si       0.53447    0.51538    0.91054    1.000
    N3996    N        0.54967    0.59581    0.88336    1.000
    N3997    N        0.55846    0.54558    0.93496    1.000
    Si3998   Si       0.48941    0.75580    0.92045    1.000
    Si3999   Si       0.63998    0.58745    0.90180    1.000
    N4000    N        0.64476    0.55120    0.92346    1.000
    Si4001   Si       0.66741    0.52423    0.89240    1.000
    N4002    N        0.67102    0.61441    0.89008    1.000
    N4003    N        0.70496    0.54560    0.88470    1.000
    Si4004   Si       0.73498    0.54095    0.91735    1.000
    Si4005   Si       0.71806    0.71381    0.91723    1.000
    N4006    N        0.52270    0.66375    0.89082    1.000
    N4007    N        0.57715    0.71547    0.90805    1.000
    N4008    N        0.53210    0.75624    0.92784    1.000
    Si4009   Si       0.69834    0.64702    0.88956    1.000
    N4010    N        0.69868    0.67615    0.92148    1.000
    N4011    N        0.54416    0.60479    0.96029    1.000
    Si4012   Si       0.57604    0.51903    0.96848    1.000
    Si4013   Si       0.53357    0.57307    0.98711    1.000
    Si4014   Si       0.60889    0.62567    0.95316    1.000
    N4015    N        0.49351    0.55914    0.97305    1.000
    N4016    N        0.61383    0.58988    0.98064    1.000
    N4017    N        0.61847    0.51606    0.97523    1.000
    N4018    N        0.70713    0.62243    0.98713    1.000
    Si4019   Si       0.63644    0.55390    0.96611    1.000
    Si4020   Si       0.66633    0.60712    0.98820    1.000
    N4021    N        0.67061    0.56156    0.98989    1.000
    N4022    N        0.73538    0.51354    0.94902    1.000
    Si4023   Si       0.55539    0.64094    0.98504    1.000
    N4024    N        0.58449    0.66163    0.95874    1.000
    N4025    N        0.57820    0.73459    0.97238    1.000
    Si4026   Si       0.59122    0.70382    0.94596    1.000
    N4027    N        0.50813    0.73490    0.99066    1.000
    Si4028   Si       0.54190    0.75682    0.96960    1.000
    N4029    N        0.52014    0.66474    0.99447    1.000
    N4030    N        0.69606    0.74512    0.93630    1.000
    N4031    N        0.64523    0.75486    0.98802    1.000
    N4032    N        0.63708    0.70339    0.94329    1.000
    Si4033   Si       0.65336    0.74419    0.94538    1.000
    Si4034   Si       0.66847    0.67445    0.95262    1.000
    N4035    N        0.65162    0.63515    0.95567    1.000
    N4036    N        0.68205    0.68931    0.99341    1.000
    N4037    N        0.58446    0.83398    0.02787    1.000
    Si4038   Si       0.55139    0.80448    0.02188    1.000
    N4039    N        0.57908    0.77177    0.03352    1.000
    Si4040   Si       0.60694    0.87171    0.02210    1.000
    N4041    N        0.51788    0.81223    0.04722    1.000
    Si4042   Si       0.60469    0.80328    0.05224    1.000
    Si4043   Si       0.49300    0.84506    0.03364    1.000
    N4044    N        0.68373    0.85334    0.00361    1.000
    N4045    N        0.64412    0.79929    0.03530    1.000
    Si4046   Si       0.67956    0.85226    0.04776    1.000
    N4047    N        0.63948    0.87359    0.05270    1.000
    N4048    N        0.51408    0.88273    0.03438    1.000
    Si4049   Si       0.54371    0.89831    0.00475    1.000
    N4050    N        0.57361    0.98915    0.01851    1.000
    N4051    N        0.57920    0.90225    0.03338    1.000
    N4052    N        0.52468    0.94010    0.00909    1.000
    Si4053   Si       0.50748    0.92431    0.04642    1.000
    Si4054   Si       0.61354    0.98166    0.03267    1.000
    Si4055   Si       0.72595    0.91320    0.04465    1.000
    N4056    N        0.69956    0.93118    0.01629    1.000
    N4057    N        0.63678    0.96594    0.00279    1.000
    Si4058   Si       0.68038    0.96711    0.00284    1.000
    N4059    N        0.69560    0.99811    0.02776    1.000
    N4060    N        0.59833    0.79446    0.09449    1.000
    Si4061   Si       0.50159    0.79071    0.08230    1.000
    Si4062   Si       0.62121    0.75942    0.10579    1.000
    Si4063   Si       0.73578    0.80891    0.08537    1.000
    N4064    N        0.66246    0.77030    0.09925    1.000
    N4065    N        0.69779    0.81661    0.06357    1.000
    Si4066   Si       0.69567    0.88068    0.10845    1.000
    Si4067   Si       0.67454    0.78070    0.05842    1.000
    N4068    N        0.70807    0.87921    0.06703    1.000
    N4069    N        0.65829    0.85558    0.11197    1.000
    Si4070   Si       0.58118    0.92536    0.06816    1.000
    N4071    N        0.59581    0.89852    0.10205    1.000
    Si4072   Si       0.53026    0.97409    0.09902    1.000
    N4073    N        0.53902    0.93873    0.07489    1.000
    N4074    N        0.61607    0.95411    0.06720    1.000
    N4075    N        0.53093    0.01034    0.07360    1.000
    Si4076   Si       0.71721    0.98665    0.06501    1.000
    Si4077   Si       0.63722    0.89136    0.09240    1.000
    Si4078   Si       0.64037    0.98562    0.09201    1.000
    N4079    N        0.68533    0.98188    0.09505    1.000
    N4080    N        0.67121    0.91617    0.10637    1.000
    Si4081   Si       0.52454    0.82939    0.14426    1.000
    N4082    N        0.54788    0.79364    0.15413    1.000
    Si4083   Si       0.58381    0.81018    0.13402    1.000
    N4084    N        0.56232    0.84905    0.13006    1.000
    N4085    N        0.49552    0.82227    0.11185    1.000
    Si4086   Si       0.58213    0.88571    0.14167    1.000
    N4087    N        0.61872    0.87424    0.16467    1.000
    N4088    N        0.62197    0.80607    0.15253    1.000
    Si4089   Si       0.64394    0.84230    0.15006    1.000
    N4090    N        0.72012    0.80115    0.12702    1.000
    Si4091   Si       0.72021    0.83299    0.15611    1.000
    N4092    N        0.72424    0.87358    0.13926    1.000
    Si4093   Si       0.69292    0.76634    0.13002    1.000
    Si4094   Si       0.63495    0.76877    0.17164    1.000
    N4095    N        0.73136    0.94534    0.13642    1.000
    Si4096   Si       0.49599    0.97050    0.15764    1.000
    N4097    N        0.56091    0.97639    0.12940    1.000
    N4098    N        0.49371    0.98828    0.11837    1.000
    N4099    N        0.55635    0.91063    0.16821    1.000
    Si4100   Si       0.56267    0.95416    0.16672    1.000
    N4101    N        0.66777    0.95325    0.16062    1.000
    N4102    N        0.62340    0.99873    0.12961    1.000
    Si4103   Si       0.68975    0.95008    0.12484    1.000
    Si4104   Si       0.63402    0.98100    0.16836    1.000
    N4105    N        0.51603    0.78929    0.21918    1.000
    N4106    N        0.56925    0.86809    0.21959    1.000
    Si4107   Si       0.53178    0.76804    0.18415    1.000
    N4108    N        0.51095    0.85326    0.17778    1.000
    Si4109   Si       0.61043    0.87470    0.20779    1.000
    Si4110   Si       0.67522    0.83856    0.21556    1.000
    N4111    N        0.70529    0.86843    0.22529    1.000
    Si4112   Si       0.73283    0.83082    0.22868    1.000
    N4113    N        0.62084    0.76310    0.21309    1.000
    N4114    N        0.67861    0.83399    0.17286    1.000
    N4115    N        0.74638    0.91894    0.19576    1.000
    Si4116   Si       0.53443    0.88573    0.19738    1.000
    N4117    N        0.52898    0.97238    0.18794    1.000
    N4118    N        0.60288    0.95512    0.18233    1.000
    Si4119   Si       0.60621    0.94669    0.22709    1.000
    N4120    N        0.51471    0.90942    0.22862    1.000
    N4121    N        0.65458    0.99684    0.20197    1.000
    N4122    N        0.71981    0.99598    0.18087    1.000
    N4123    N        0.62406    0.90921    0.23127    1.000
    Si4124   Si       0.68861    0.97048    0.19519    1.000
    Si4125   Si       0.71996    0.90841    0.22884    1.000
    Si4126   Si       0.52743    0.95104    0.22835    1.000
    Si4127   Si       0.53301    0.80784    0.25572    1.000
    Si4128   Si       0.57466    0.85307    0.25998    1.000
    N4129    N        0.57697    0.81065    0.24651    1.000
    N4130    N        0.53811    0.84555    0.28056    1.000
    Si4131   Si       0.60938    0.78254    0.25097    1.000
    N4132    N        0.60302    0.86931    0.28809    1.000
    N4133    N        0.52789    0.77955    0.28833    1.000
    Si4134   Si       0.68453    0.77592    0.26172    1.000
    N4135    N        0.64262    0.78089    0.27698    1.000
    Si4136   Si       0.63730    0.88009    0.26237    1.000
    N4137    N        0.69659    0.80729    0.23587    1.000
    N4138    N        0.56787    0.95582    0.24541    1.000
    Si4139   Si       0.59019    0.97613    0.27945    1.000
    N4140    N        0.63066    0.96555    0.26082    1.000
    N4141    N        0.69086    0.94350    0.23110    1.000
    Si4142   Si       0.66725    0.94176    0.26984    1.000
    Si4143   Si       0.64978    0.00080    0.24521    1.000
    N4144    N        0.67262    0.89849    0.28045    1.000
    N4145    N        0.63634    0.84900    0.23108    1.000
    Si4146   Si       0.53546    0.85338    0.32336    1.000
    N4147    N        0.59364    0.77656    0.32237    1.000
    N4148    N        0.57248    0.83801    0.34108    1.000
    N4149    N        0.49803    0.83646    0.33617    1.000
    Si4150   Si       0.61077    0.85752    0.32972    1.000
    N4151    N        0.71700    0.85160    0.31725    1.000
    N4152    N        0.64354    0.82741    0.33205    1.000
    Si4153   Si       0.63675    0.78451    0.31950    1.000
    Si4154   Si       0.70274    0.76967    0.34252    1.000
    N4155    N        0.70754    0.78257    0.29942    1.000
    Si4156   Si       0.73725    0.81594    0.30158    1.000
    Si4157   Si       0.68363    0.83725    0.34485    1.000
    Si4158   Si       0.49978    0.91601    0.31958    1.000
    Si4159   Si       0.54496    0.97560    0.32205    1.000
    N4160    N        0.51356    0.95213    0.29996    1.000
    N4161    N        0.58496    0.95292    0.31754    1.000
    N4162    N        0.53288    0.89375    0.33628    1.000
    N4163    N        0.56187    0.00543    0.29123    1.000
    N4164    N        0.62880    0.89544    0.34829    1.000
    N4165    N        0.68436    0.96388    0.30484    1.000
    Si4166   Si       0.69563    0.94758    0.34317    1.000
    Si4167   Si       0.70792    0.99948    0.29118    1.000
    Si4168   Si       0.71214    0.89011    0.29698    1.000
    N4169    N        0.71938    0.91090    0.33557    1.000
    N4170    N        0.53503    0.78627    0.37330    1.000
    N4171    N        0.60460    0.78148    0.38594    1.000
    Si4172   Si       0.57563    0.79579    0.35759    1.000
    Si4173   Si       0.49724    0.80209    0.36195    1.000
    N4174    N        0.68467    0.86723    0.37841    1.000
    N4175    N        0.70052    0.80396    0.36818    1.000
    Si4176   Si       0.73620    0.87546    0.35597    1.000
    Si4177   Si       0.65783    0.89991    0.38096    1.000
    N4178    N        0.57851    0.90919    0.38475    1.000
    N4179    N        0.53988    0.95649    0.36411    1.000
    Si4180   Si       0.53774    0.91466    0.37493    1.000
    Si4181   Si       0.52437    0.99104    0.38199    1.000
    Si4182   Si       0.60115    0.93334    0.35573    1.000
    Si4183   Si       0.59471    0.00235    0.40086    1.000
    N4184    N        0.61195    0.96751    0.37996    1.000
    Si4185   Si       0.65629    0.97718    0.39899    1.000
    N4186    N        0.72720    0.97498    0.35403    1.000
    N4187    N        0.67461    0.94111    0.38013    1.000
    N4188    N        0.66345    0.00744    0.36841    1.000
    N4189    N        0.49207    0.00154    0.40938    1.000
    N4190    N        0.55383    0.79685    0.43609    1.000
    Si4191   Si       0.59594    0.80295    0.42396    1.000
    N4192    N        0.51294    0.86016    0.45277    1.000
    Si4193   Si       0.53415    0.76484    0.41097    1.000
    N4194    N        0.60184    0.84379    0.41488    1.000
    Si4195   Si       0.69698    0.97139    0.46861    1.000
    Si4196   Si       0.65496    0.76480    0.45920    1.000
    N4197    N        0.61931    0.78827    0.45812    1.000
    N4198    N        0.70426    0.82353    0.43440    1.000
    Si4199   Si       0.70732    0.86127    0.41506    1.000
    N4200    N        0.66919    0.76638    0.41671    1.000
    N4201    N        0.69074    0.98702    0.42909    1.000
    Si4202   Si       0.59902    0.88652    0.41672    1.000
    N4203    N        0.57475    0.88920    0.45135    1.000
    Si4204   Si       0.53390    0.89849    0.44501    1.000
    N4205    N        0.55353    0.99817    0.41378    1.000
    Si4206   Si       0.52226    0.01175    0.44227    1.000
    N4207    N        0.51326    0.91165    0.40890    1.000
    Si4208   Si       0.65889    0.90412    0.45782    1.000
    Si4209   Si       0.73368    0.90347    0.46847    1.000
    N4210    N        0.62493    0.00309    0.43324    1.000
    N4211    N        0.63796    0.90144    0.41903    1.000
    N4212    N        0.69946    0.88982    0.44698    1.000
    Si4213   Si       0.70636    0.78747    0.40869    1.000
    N4214    N        0.57542    0.83632    0.48732    1.000
    N4215    N        0.51269    0.80739    0.49725    1.000
    Si4216   Si       0.60066    0.80156    0.49675    1.000
    N4217    N        0.57227    0.77035    0.50692    1.000
    Si4218   Si       0.53002    0.77238    0.51292    1.000
    Si4219   Si       0.59206    0.87516    0.48935    1.000
    N4220    N        0.69780    0.84642    0.50581    1.000
    N4221    N        0.68735    0.77713    0.48582    1.000
    Si4222   Si       0.70912    0.81587    0.47629    1.000
    N4223    N        0.63354    0.82243    0.51678    1.000
    Si4224   Si       0.65651    0.85964    0.51840    1.000
    N4225    N        0.63580    0.88442    0.48835    1.000
    N4226    N        0.65799    0.94671    0.46897    1.000
    Si4227   Si       0.56100    0.93999    0.49832    1.000
    N4228    N        0.52613    0.92702    0.47673    1.000
    N4229    N        0.50073    0.99395    0.47741    1.000
    N4230    N        0.57465    0.90086    0.51852    1.000
    N4231    N        0.58838    0.95647    0.47102    1.000
    Si4232   Si       0.62520    0.97753    0.46873    1.000
    N4233    N        0.69848    0.99658    0.50312    1.000
    N4234    N        0.63256    0.01309    0.49375    1.000
    Si4235   Si       0.53801    0.82644    0.46683    1.000
    N4236    N        0.73231    0.94809    0.47015    1.000
    N4237    N        0.51409    0.77394    0.55204    1.000
    N4238    N        0.58096    0.85499    0.57203    1.000
    Si4239   Si       0.65697    0.95918    0.58711    1.000
    Si4240   Si       0.64924    0.80107    0.55163    1.000
    N4241    N        0.64804    0.86520    0.56261    1.000
    Si4242   Si       0.71933    0.77200    0.57044    1.000
    N4243    N        0.68900    0.80474    0.56614    1.000
    Si4244   Si       0.73195    0.85984    0.52942    1.000
    N4245    N        0.73784    0.75989    0.53342    1.000
    N4246    N        0.51751    0.88803    0.56393    1.000
    Si4247   Si       0.55954    0.89011    0.55771    1.000
    Si4248   Si       0.58178    0.96054    0.57007    1.000
    N4249    N        0.56025    0.96882    0.53010    1.000
    Si4250   Si       0.72063    0.98172    0.53830    1.000
    Si4251   Si       0.72648    0.93006    0.57139    1.000
    N4252    N        0.69270    0.95917    0.56393    1.000
    N4253    N        0.62351    0.97480    0.56082    1.000
    N4254    N        0.71315    0.88969    0.56386    1.000
    N4255    N        0.63463    0.76195    0.53958    1.000
    N4256    N        0.56094    0.99390    0.58770    1.000
    N4257    N        0.51622    0.82166    0.60670    1.000
    N4258    N        0.57522    0.79364    0.63168    1.000
    Si4259   Si       0.60257    0.77510    0.60477    1.000
    Si4260   Si       0.53142    0.79051    0.63374    1.000
    Si4261   Si       0.49835    0.85794    0.59145    1.000
    N4262    N        0.61453    0.85558    0.63417    1.000
    Si4263   Si       0.61732    0.84949    0.59113    1.000
    N4264    N        0.68121    0.85918    0.62711    1.000
    Si4265   Si       0.71240    0.83068    0.63295    1.000
    N4266    N        0.69230    0.79178    0.64281    1.000
    Si4267   Si       0.67823    0.88305    0.59083    1.000
    N4268    N        0.62459    0.80826    0.58531    1.000
    Si4269   Si       0.55961    0.99497    0.63433    1.000
    Si4270   Si       0.54894    0.92410    0.62491    1.000
    N4271    N        0.50560    0.93467    0.61966    1.000
    N4272    N        0.51826    0.00008    0.63891    1.000
    N4273    N        0.65999    0.97696    0.62806    1.000
    N4274    N        0.56883    0.92327    0.58579    1.000
    Si4275   Si       0.66250    0.93838    0.64513    1.000
    N4276    N        0.65911    0.91860    0.60439    1.000
    N4277    N        0.74176    0.92494    0.61210    1.000
    N4278    N        0.51268    0.79136    0.67213    1.000
    N4279    N        0.56574    0.83112    0.68684    1.000
    Si4280   Si       0.54998    0.87120    0.68870    1.000
    Si4281   Si       0.59419    0.82420    0.65554    1.000
    N4282    N        0.61413    0.79569    0.68039    1.000
    Si4283   Si       0.70497    0.79607    0.68613    1.000
    N4284    N        0.72797    0.83190    0.67599    1.000
    N4285    N        0.66362    0.86867    0.69670    1.000
    Si4286   Si       0.64807    0.87771    0.65490    1.000
    N4287    N        0.72842    0.76056    0.69750    1.000
    Si4288   Si       0.59298    0.93563    0.68393    1.000
    N4289    N        0.53775    0.89267    0.65329    1.000
    N4290    N        0.57002    0.95449    0.64875    1.000
    Si4291   Si       0.49363    0.90333    0.65027    1.000
    N4292    N        0.69572    0.92234    0.66927    1.000
    N4293    N        0.62921    0.91926    0.66470    1.000
    Si4294   Si       0.73532    0.93232    0.65532    1.000
    Si4295   Si       0.73238    0.99050    0.69466    1.000
    N4296    N        0.54651    0.80246    0.74162    1.000
    Si4297   Si       0.59138    0.80691    0.71786    1.000
    N4298    N        0.59993    0.77104    0.74287    1.000
    N4299    N        0.51418    0.85810    0.71211    1.000
    Si4300   Si       0.59621    0.87941    0.74165    1.000
    Si4301   Si       0.52302    0.81546    0.70724    1.000
    Si4302   Si       0.56093    0.76001    0.75417    1.000
    N4303    N        0.61349    0.84033    0.73443    1.000
    Si4304   Si       0.65617    0.84042    0.73061    1.000
    N4305    N        0.67870    0.80263    0.72077    1.000
    Si4306   Si       0.68568    0.77651    0.75438    1.000
    N4307    N        0.73066    0.87850    0.72166    1.000
    N4308    N        0.72897    0.77465    0.76156    1.000
    N4309    N        0.52900    0.99664    0.74555    1.000
    N4310    N        0.58969    0.96380    0.71753    1.000
    Si4311   Si       0.56893    0.00072    0.72760    1.000
    Si4312   Si       0.60340    0.95099    0.75690    1.000
    N4313    N        0.50168    0.91162    0.75981    1.000
    N4314    N        0.57915    0.89877    0.70535    1.000
    Si4315   Si       0.69453    0.89802    0.70713    1.000
    N4316    N        0.69776    0.99200    0.72231    1.000
    Si4317   Si       0.68556    0.96661    0.75482    1.000
    N4318    N        0.68575    0.92533    0.74104    1.000
    N4319    N        0.61887    0.91029    0.75960    1.000
    N4320    N        0.50103    0.83059    0.78496    1.000
    Si4321   Si       0.54172    0.83340    0.77181    1.000
    N4322    N        0.56322    0.81993    0.80875    1.000
    N4323    N        0.55874    0.87230    0.76471    1.000
    N4324    N        0.72733    0.84009    0.78856    1.000
    N4325    N        0.67389    0.79889    0.78922    1.000
    Si4326   Si       0.68448    0.84089    0.79763    1.000
    N4327    N        0.66690    0.86396    0.76601    1.000
    N4328    N        0.68071    0.91204    0.81145    1.000
    Si4329   Si       0.53651    0.97724    0.78595    1.000
    Si4330   Si       0.53889    0.90727    0.78186    1.000
    N4331    N        0.56274    0.94470    0.77604    1.000
    N4332    N        0.49325    0.97433    0.79305    1.000
    N4333    N        0.55204    0.99708    0.81998    1.000
    N4334    N        0.64304    0.97007    0.76628    1.000
    N4335    N        0.71078    0.97187    0.79198    1.000
    Si4336   Si       0.71895    0.93390    0.80768    1.000
    Si4337   Si       0.66062    0.90737    0.77251    1.000
    N4338    N        0.51400    0.83974    0.85301    1.000
    N4339    N        0.58926    0.86561    0.85245    1.000
    Si4340   Si       0.55141    0.85398    0.83439    1.000
    N4341    N        0.58806    0.76601    0.85979    1.000
    Si4342   Si       0.49342    0.81455    0.82457    1.000
    N4343    N        0.51656    0.77808    0.82649    1.000
    Si4344   Si       0.56096    0.77918    0.82447    1.000
    N4345    N        0.66205    0.78284    0.85939    1.000
    N4346    N        0.67241    0.85008    0.83740    1.000
    N4347    N        0.72448    0.77979    0.83062    1.000
    Si4348   Si       0.67317    0.82389    0.87255    1.000
    Si4349   Si       0.68232    0.77165    0.82242    1.000
    Si4350   Si       0.62912    0.75878    0.87416    1.000
    Si4351   Si       0.55594    0.97845    0.86056    1.000
    N4352    N        0.51624    0.95716    0.85561    1.000
    Si4353   Si       0.53868    0.91883    0.86058    1.000
    N4354    N        0.57732    0.93759    0.86523    1.000
    N4355    N        0.53523    0.89447    0.82422    1.000
    N4356    N        0.60108    0.99236    0.87493    1.000
    Si4357   Si       0.69936    0.96529    0.86373    1.000
    N4358    N        0.71329    0.00763    0.85446    1.000
    Si4359   Si       0.63714    0.00955    0.85613    1.000
    Si4360   Si       0.67511    0.89219    0.84827    1.000
    N4361    N        0.65559    0.96887    0.85497    1.000
    N4362    N        0.72942    0.93923    0.84899    1.000
    Si4363   Si       0.62039    0.94746    0.86764    1.000
    N4364    N        0.64004    0.90820    0.87223    1.000
    Si4365   Si       0.50017    0.85591    0.89095    1.000
    N4366    N        0.49916    0.83110    0.92617    1.000
    N4367    N        0.57669    0.80451    0.91502    1.000
    Si4368   Si       0.57138    0.76125    0.90492    1.000
    Si4369   Si       0.61194    0.87575    0.88499    1.000
    Si4370   Si       0.61970    0.81117    0.92449    1.000
    N4371    N        0.62749    0.76599    0.91768    1.000
    N4372    N        0.71261    0.82330    0.89342    1.000
    N4373    N        0.63842    0.83900    0.89663    1.000
    Si4374   Si       0.71773    0.86362    0.91583    1.000
    N4375    N        0.58908    0.88820    0.91901    1.000
    N4376    N        0.54068    0.00175    0.89772    1.000
    Si4377   Si       0.51376    0.98229    0.93042    1.000
    N4378    N        0.52391    0.89216    0.89363    1.000
    Si4379   Si       0.54835    0.90563    0.93363    1.000
    N4380    N        0.51582    0.94046    0.93109    1.000
    N4381    N        0.69730    0.95375    0.90643    1.000
    Si4382   Si       0.67243    0.91622    0.90931    1.000
    Si4383   Si       0.71046    0.98447    0.93561    1.000
    N4384    N        0.70323    0.89182    0.88136    1.000
    Si4385   Si       0.58347    0.00713    0.91046    1.000
    N4386    N        0.68109    0.88333    0.93918    1.000
    N4387    N        0.63865    0.93548    0.93256    1.000
    N4388    N        0.53908    0.80019    0.98068    1.000
    Si4389   Si       0.51933    0.83616    0.96462    1.000
    N4390    N        0.53817    0.87577    0.96666    1.000
    Si4391   Si       0.72465    0.76791    0.96007    1.000
    N4392    N        0.63747    0.82327    0.96150    1.000
    N4393    N        0.69771    0.79877    0.97656    1.000
    Si4394   Si       0.65794    0.86191    0.96963    1.000
    Si4395   Si       0.72012    0.83403    0.99000    1.000
    Si4396   Si       0.65753    0.79715    0.99273    1.000
    N4397    N        0.73653    0.85262    0.95473    1.000
    N4398    N        0.62402    0.88471    0.98408    1.000
    Si4399   Si       0.63725    0.97001    0.95867    1.000
    N4400    N        0.60925    0.99798    0.94523    1.000
    N4401    N        0.53433    0.99770    0.96367    1.000
    Si4402   Si       0.55365    0.96379    0.98738    1.000
    Si4403   Si       0.60868    0.91093    0.95264    1.000
    N4404    N        0.57392    0.93154    0.96535    1.000
    N4405    N        0.67836    0.98245    0.96222    1.000
    N4406    N        0.81007    0.07398    0.04239    1.000
    Si4407   Si       0.81233    0.12745    0.01254    1.000
    Si4408   Si       0.80028    0.05818    0.00216    1.000
    N4409    N        0.85432    0.13043    0.01279    1.000
    Si4410   Si       0.86778    0.01495    0.01106    1.000
    N4411    N        0.98255    0.12346    0.01403    1.000
    N4412    N        0.91695    0.09727    0.03993    1.000
    N4413    N        0.87841    0.03959    0.04453    1.000
    N4414    N        0.94816    0.03565    0.03148    1.000
    Si4415   Si       0.88956    0.10741    0.00543    1.000
    N4416    N        0.92839    0.16226    0.04980    1.000
    N4417    N        0.79178    0.13712    0.05011    1.000
    N4418    N        0.76946    0.22536    0.01127    1.000
    N4419    N        0.86649    0.20537    0.01905    1.000
    N4420    N        0.94668    0.23202    0.03852    1.000
    Si4421   Si       0.94913    0.15184    0.01315    1.000
    Si4422   Si       0.87188    0.24082    0.99552    1.000
    Si4423   Si       0.94069    0.00800    0.00043    1.000
    Si4424   Si       0.94974    0.22451    0.99609    1.000
    Si4425   Si       0.78594    0.09522    0.07420    1.000
    N4426    N        0.77628    0.06210    0.10504    1.000
    Si4427   Si       0.77471    0.02443    0.08571    1.000
    N4428    N        0.81750    0.11431    0.10091    1.000
    N4429    N        0.85224    0.05683    0.10290    1.000
    Si4430   Si       0.83849    0.04738    0.06318    1.000
    N4431    N        0.74088    0.10762    0.07430    1.000
    N4432    N        0.81018    0.01456    0.06484    1.000
    N4433    N        0.98776    0.26090    0.09530    1.000
    N4434    N        0.74326    0.02252    0.05516    1.000
    Si4435   Si       0.92077    0.12545    0.07272    1.000
    N4436    N        0.89087    0.11229    0.10353    1.000
    N4437    N        0.93515    0.05711    0.09755    1.000
    N4438    N        0.95317    0.12665    0.10275    1.000
    N4439    N        0.89673    0.21631    0.08353    1.000
    N4440    N        0.83501    0.18830    0.08473    1.000
    Si4441   Si       0.80750    0.15452    0.09108    1.000
    N4442    N        0.76699    0.17404    0.09374    1.000
    N4443    N        0.84045    0.25399    0.06273    1.000
    Si4444   Si       0.85962    0.21528    0.06093    1.000
    Si4445   Si       0.74766    0.14786    0.06000    1.000
    Si4446   Si       0.93390    0.20155    0.06737    1.000
    N4447    N        0.96472    0.19322    0.09793    1.000
    Si4448   Si       0.91826    0.05392    0.05444    1.000
    Si4449   Si       0.76199    0.07490    0.14317    1.000
    N4450    N        0.84511    0.10172    0.15964    1.000
    N4451    N        0.77284    0.10929    0.16507    1.000
    Si4452   Si       0.81286    0.13006    0.16975    1.000
    N4453    N        0.91600    0.09202    0.16370    1.000
    N4454    N        0.97230    0.08143    0.14137    1.000
    Si4455   Si       0.93017    0.09299    0.12254    1.000
    N4456    N        0.81169    0.16309    0.14057    1.000
    N4457    N        0.79365    0.22173    0.14311    1.000
    Si4458   Si       0.82904    0.20030    0.12609    1.000
    Si4459   Si       0.77081    0.18404    0.14664    1.000
    N4460    N        0.86460    0.21811    0.14191    1.000
    N4461    N        0.93214    0.24056    0.14062    1.000
    Si4462   Si       0.95917    0.16375    0.12834    1.000
    Si4463   Si       0.89384    0.23947    0.11933    1.000
    N4464    N        0.93635    0.17458    0.16447    1.000
    Si4465   Si       0.85369    0.09700    0.11723    1.000
    Si4466   Si       0.97077    0.04113    0.12069    1.000
    Si4467   Si       0.79937    0.04267    0.20703    1.000
    N4468    N        0.83357    0.02317    0.18826    1.000
    Si4469   Si       0.74942    0.13130    0.19266    1.000
    N4470    N        0.76746    0.02177    0.23051    1.000
    N4471    N        0.81968    0.13591    0.21310    1.000
    N4472    N        0.76924    0.04284    0.17237    1.000
    Si4473   Si       0.88024    0.09987    0.18481    1.000
    N4474    N        0.87794    0.06520    0.21373    1.000
    N4475    N        0.96111    0.11587    0.20996    1.000
    N4476    N        0.95057    0.04520    0.20183    1.000
    Si4477   Si       0.87507    0.02297    0.20291    1.000
    Si4478   Si       0.95652    0.08221    0.18106    1.000
    N4479    N        0.83942    0.19308    0.20379    1.000
    N4480    N        0.76826    0.16882    0.18749    1.000
    Si4481   Si       0.79853    0.18502    0.21655    1.000
    Si4482   Si       0.85843    0.15665    0.22629    1.000
    N4483    N        0.78361    0.22487    0.22483    1.000
    Si4484   Si       0.85808    0.22755    0.18508    1.000
    Si4485   Si       0.93264    0.21668    0.17687    1.000
    Si4486   Si       0.93060    0.14805    0.19876    1.000
    N4487    N        0.96885    0.22073    0.20198    1.000
    N4488    N        0.88793    0.13958    0.19889    1.000
    N4489    N        0.89914    0.23389    0.19919    1.000
    Si4490   Si       0.80084    0.11627    0.24844    1.000
    Si4491   Si       0.80892    0.05715    0.28362    1.000
    N4492    N        0.85942    0.05561    0.28462    1.000
    Si4493   Si       0.85716    0.08059    0.24819    1.000
    N4494    N        0.81330    0.07243    0.23551    1.000
    N4495    N        0.80904    0.10136    0.28858    1.000
    Si4496   Si       0.85870    0.01139    0.27889    1.000
    N4497    N        0.75822    0.12013    0.23322    1.000
    N4498    N        0.86662    0.12124    0.25723    1.000
    Si4499   Si       0.96900    0.05150    0.24093    1.000
    N4500    N        0.94857    0.07880    0.26593    1.000
    Si4501   Si       0.95033    0.12582    0.25835    1.000
    N4502    N        0.98204    0.01464    0.26033    1.000
    Si4503   Si       0.83485    0.18566    0.28236    1.000
    N4504    N        0.79880    0.17032    0.26133    1.000
    Si4505   Si       0.76320    0.17837    0.28459    1.000
    N4506    N        0.88357    0.24939    0.26109    1.000
    N4507    N        0.94408    0.22412    0.27186    1.000
    Si4508   Si       0.96503    0.20270    0.24255    1.000
    Si4509   Si       0.90218    0.21148    0.27668    1.000
    N4510    N        0.93917    0.16682    0.23733    1.000
    N4511    N        0.87209    0.18281    0.25830    1.000
    N4512    N        0.77947    0.04956    0.31937    1.000
    Si4513   Si       0.82301    0.11995    0.32426    1.000
    N4514    N        0.85839    0.09909    0.33921    1.000
    Si4515   Si       0.75031    0.13187    0.33892    1.000
    N4516    N        0.84391    0.03415    0.34812    1.000
    Si4517   Si       0.93976    0.13978    0.32988    1.000
    Si4518   Si       0.96429    0.25195    0.30190    1.000
    Si4519   Si       0.87043    0.06051    0.32677    1.000
    Si4520   Si       0.94792    0.07200    0.30905    1.000
    N4521    N        0.91425    0.05497    0.32967    1.000
    N4522    N        0.95603    0.10090    0.34401    1.000
    N4523    N        0.92327    0.12846    0.29249    1.000
    N4524    N        0.90416    0.18572    0.31225    1.000
    Si4525   Si       0.80097    0.22974    0.32542    1.000
    N4526    N        0.84374    0.15691    0.31277    1.000
    N4527    N        0.77095    0.19966    0.32093    1.000
    N4528    N        0.74980    0.13949    0.29749    1.000
    N4529    N        0.83180    0.22533    0.29812    1.000
    Si4530   Si       0.74032    0.20372    0.35166    1.000
    N4531    N        0.97282    0.16791    0.32602    1.000
    N4532    N        0.94014    0.23348    0.34243    1.000
    Si4533   Si       0.88412    0.14831    0.28958    1.000
    N4534    N        0.79547    0.04243    0.39382    1.000
    N4535    N        0.79123    0.13117    0.35192    1.000
    Si4536   Si       0.86184    0.01335    0.38044    1.000
    Si4537   Si       0.87636    0.11883    0.37335    1.000
    N4538    N        0.95169    0.04353    0.39086    1.000
    Si4539   Si       0.93997    0.08638    0.38598    1.000
    N4540    N        0.89952    0.08973    0.39687    1.000
    Si4541   Si       0.93087    0.02470    0.35653    1.000
    N4542    N        0.84551    0.13842    0.39537    1.000
    Si4543   Si       0.85757    0.25024    0.36931    1.000
    N4544    N        0.75251    0.22946    0.38369    1.000
    Si4545   Si       0.80237    0.14601    0.39044    1.000
    N4546    N        0.81450    0.24563    0.36529    1.000
    Si4547   Si       0.79340    0.22683    0.39842    1.000
    N4548    N        0.80815    0.18796    0.40392    1.000
    N4549    N        0.88116    0.21389    0.37448    1.000
    N4550    N        0.94660    0.18961    0.38611    1.000
    Si4551   Si       0.92892    0.15281    0.40152    1.000
    Si4552   Si       0.91516    0.19762    0.35351    1.000
    Si4553   Si       0.97748    0.20628    0.35107    1.000
    N4554    N        0.90958    0.14589    0.36162    1.000
    Si4555   Si       0.80004    0.02885    0.35442    1.000
    N4556    N        0.81871    0.02290    0.45487    1.000
    N4557    N        0.74737    0.03325    0.44725    1.000
    Si4558   Si       0.78293    0.01998    0.42713    1.000
    Si4559   Si       0.79698    0.12955    0.46388    1.000
    N4560    N        0.77633    0.13251    0.42309    1.000
    N4561    N        0.87619    0.02985    0.41931    1.000
    Si4562   Si       0.89550    0.06571    0.43402    1.000
    N4563    N        0.93268    0.05597    0.45421    1.000
    Si4564   Si       0.96124    0.02789    0.43103    1.000
    N4565    N        0.86821    0.08215    0.46227    1.000
    N4566    N        0.95731    0.11866    0.40794    1.000
    N4567    N        0.79521    0.25613    0.42977    1.000
    Si4568   Si       0.84838    0.16943    0.42626    1.000
    N4569    N        0.85418    0.21026    0.44266    1.000
    N4570    N        0.83876    0.14469    0.46053    1.000
    Si4571   Si       0.95976    0.20504    0.42437    1.000
    N4572    N        0.89507    0.16981    0.42467    1.000
    N4573    N        0.95384    0.17256    0.45125    1.000
    N4574    N        0.92606    0.23257    0.43211    1.000
    Si4575   Si       0.91198    0.17545    0.46519    1.000
    Si4576   Si       0.88696    0.22282    0.41669    1.000
    N4577    N        0.77117    0.03962    0.51067    1.000
    N4578    N        0.84353    0.04732    0.51649    1.000
    Si4579   Si       0.76164    0.06428    0.47693    1.000
    Si4580   Si       0.83307    0.05917    0.47437    1.000
    N4581    N        0.79957    0.08700    0.47216    1.000
    N4582    N        0.92636    0.00930    0.51235    1.000
    Si4583   Si       0.86311    0.11959    0.48609    1.000
    Si4584   Si       0.93763    0.04724    0.49699    1.000
    N4585    N        0.97790    0.05630    0.50924    1.000
    N4586    N        0.97082    0.12222    0.49585    1.000
    Si4587   Si       0.93125    0.11607    0.51059    1.000
    N4588    N        0.91228    0.07655    0.52141    1.000
    N4589    N        0.78181    0.14946    0.49978    1.000
    N4590    N        0.83262    0.20249    0.51214    1.000
    N4591    N        0.75325    0.20413    0.50095    1.000
    Si4592   Si       0.79224    0.19058    0.51702    1.000
    Si4593   Si       0.74499    0.24665    0.50160    1.000
    Si4594   Si       0.86049    0.21908    0.48494    1.000
    Si4595   Si       0.74256    0.16250    0.49301    1.000
    N4596    N        0.95490    0.24276    0.49386    1.000
    N4597    N        0.90335    0.13614    0.48375    1.000
    Si4598   Si       0.92340    0.23078    0.52197    1.000
    Si4599   Si       0.98662    0.15751    0.47424    1.000
    N4600    N        0.89953    0.20601    0.49399    1.000
    N4601    N        0.79554    0.02856    0.56863    1.000
    Si4602   Si       0.76070    0.04824    0.55368    1.000
    N4603    N        0.75104    0.08784    0.56599    1.000
    N4604    N        0.85921    0.11279    0.52881    1.000
    N4605    N        0.86813    0.05803    0.57983    1.000
    Si4606   Si       0.87275    0.07055    0.53839    1.000
    N4607    N        0.95746    0.03978    0.57096    1.000
    Si4608   Si       0.99199    0.05513    0.55136    1.000
    N4609    N        0.74693    0.25336    0.54612    1.000
    N4610    N        0.79430    0.20123    0.55981    1.000
    Si4611   Si       0.83663    0.20870    0.55615    1.000
    Si4612   Si       0.76476    0.22721    0.57843    1.000
    N4613    N        0.93812    0.20746    0.55542    1.000
    N4614    N        0.86718    0.18030    0.56711    1.000
    Si4615   Si       0.94172    0.16772    0.57118    1.000
    Si4616   Si       0.87613    0.13860    0.55927    1.000
    N4617    N        0.98591    0.15952    0.57237    1.000
    N4618    N        0.91946    0.13984    0.54616    1.000
    Si4619   Si       0.80841    0.02267    0.52786    1.000
    Si4620   Si       0.76345    0.09409    0.60831    1.000
    Si4621   Si       0.84647    0.08382    0.60829    1.000
    N4622    N        0.80464    0.08707    0.60665    1.000
    N4623    N        0.78702    0.02649    0.63638    1.000
    N4624    N        0.74025    0.07403    0.64027    1.000
    N4625    N        0.74850    0.13141    0.62360    1.000
    N4626    N        0.86393    0.12185    0.59772    1.000
    Si4627   Si       0.95413    0.05457    0.61202    1.000
    N4628    N        0.95751    0.09766    0.61268    1.000
    N4629    N        0.91865    0.03583    0.62874    1.000
    Si4630   Si       0.88396    0.02262    0.60273    1.000
    Si4631   Si       0.94303    0.12702    0.63899    1.000
    Si4632   Si       0.75124    0.17352    0.62895    1.000
    N4633    N        0.78142    0.25100    0.60988    1.000
    N4634    N        0.84642    0.23650    0.58904    1.000
    N4635    N        0.86272    0.18189    0.63343    1.000
    Si4636   Si       0.87184    0.13990    0.63603    1.000
    N4637    N        0.91309    0.22608    0.61246    1.000
    Si4638   Si       0.87556    0.20747    0.60247    1.000
    N4639    N        0.98620    0.24093    0.61038    1.000
    N4640    N        0.93094    0.15888    0.61288    1.000
    Si4641   Si       0.94849    0.23638    0.58707    1.000
    N4642    N        0.78695    0.19069    0.64655    1.000
    N4643    N        0.80611    0.07543    0.69102    1.000
    Si4644   Si       0.82070    0.04488    0.66149    1.000
    Si4645   Si       0.74915    0.03494    0.65599    1.000
    N4646    N        0.85483    0.06805    0.64900    1.000
    Si4647   Si       0.82415    0.11399    0.69804    1.000
    N4648    N        0.76109    0.02310    0.70038    1.000
    N4649    N        0.82634    0.01049    0.68745    1.000
    Si4650   Si       0.88239    0.08426    0.67948    1.000
    N4651    N        0.90293    0.11488    0.65484    1.000
    Si4652   Si       0.91829    0.01713    0.66611    1.000
    N4653    N        0.90524    0.04849    0.69308    1.000
    N4654    N        0.83369    0.13641    0.66183    1.000
    N4655    N        0.82619    0.24705    0.65446    1.000
    N4656    N        0.77217    0.23936    0.69338    1.000
    Si4657   Si       0.82703    0.17782    0.65934    1.000
    Si4658   Si       0.78459    0.23362    0.65179    1.000
    N4659    N        0.83356    0.19444    0.70044    1.000
    Si4660   Si       0.85535    0.25736    0.68499    1.000
    Si4661   Si       0.92147    0.22932    0.65572    1.000
    N4662    N        0.94650    0.20838    0.68794    1.000
    Si4663   Si       0.97258    0.17757    0.69658    1.000
    N4664    N        0.88910    0.23071    0.68577    1.000
    N4665    N        0.96922    0.14084    0.67170    1.000
    N4666    N        0.80267    0.03614    0.74924    1.000
    N4667    N        0.75469    0.08136    0.74436    1.000
    Si4668   Si       0.77932    0.05827    0.71907    1.000
    Si4669   Si       0.75834    0.12502    0.73364    1.000
    N4670    N        0.80087    0.13188    0.72967    1.000
    N4671    N        0.86476    0.10528    0.71277    1.000
    Si4672   Si       0.90706    0.03307    0.73388    1.000
    N4673    N        0.94056    0.05537    0.75225    1.000
    Si4674   Si       0.98308    0.06011    0.75607    1.000
    Si4675   Si       0.87874    0.13374    0.74304    1.000
    N4676    N        0.87486    0.05025    0.76178    1.000
    N4677    N        0.83720    0.25389    0.72383    1.000
    Si4678   Si       0.80314    0.22146    0.71857    1.000
    N4679    N        0.78659    0.19644    0.75116    1.000
    N4680    N        0.85751    0.16725    0.76086    1.000
    Si4681   Si       0.81340    0.16090    0.76156    1.000
    N4682    N        0.89733    0.16105    0.71370    1.000
    N4683    N        0.90008    0.21639    0.74670    1.000
    N4684    N        0.98406    0.16703    0.73812    1.000
    N4685    N        0.96740    0.24429    0.73159    1.000
    Si4686   Si       0.87435    0.19743    0.71405    1.000
    Si4687   Si       0.92481    0.23781    0.71949    1.000
    N4688    N        0.81810    0.08389    0.79104    1.000
    Si4689   Si       0.83505    0.04593    0.77721    1.000
    N4690    N        0.76012    0.02052    0.79704    1.000
    Si4691   Si       0.77138    0.06040    0.77911    1.000
    N4692    N        0.83207    0.01327    0.80889    1.000
    Si4693   Si       0.79717    0.10876    0.81940    1.000
    N4694    N        0.76033    0.08621    0.81368    1.000
    Si4695   Si       0.90823    0.07394    0.77814    1.000
    N4696    N        0.90259    0.11622    0.77447    1.000
    N4697    N        0.96072    0.10654    0.81488    1.000
    N4698    N        0.91660    0.06098    0.81712    1.000
    Si4699   Si       0.92655    0.13182    0.80693    1.000
    N4700    N        0.74719    0.24016    0.78611    1.000
    N4701    N        0.80081    0.14799    0.80078    1.000
    N4702    N        0.80917    0.22038    0.81189    1.000
    Si4703   Si       0.74514    0.19453    0.77170    1.000
    N4704    N        0.74515    0.18503    0.81908    1.000
    N4705    N        0.88367    0.20187    0.81960    1.000
    N4706    N        0.98404    0.22064    0.79184    1.000
    Si4707   Si       0.89247    0.18999    0.77969    1.000
    Si4708   Si       0.97480    0.17848    0.78066    1.000
    N4709    N        0.93274    0.17155    0.78831    1.000
    N4710    N        0.99123    0.04640    0.79760    1.000
    Si4711   Si       0.78485    0.25614    0.80146    1.000
    N4712    N        0.81199    0.10531    0.86022    1.000
    Si4713   Si       0.85122    0.01678    0.84935    1.000
    N4714    N        0.86227    0.05679    0.86135    1.000
    N4715    N        0.75077    0.13582    0.87172    1.000
    N4716    N        0.95498    0.02960    0.85401    1.000
    Si4717   Si       0.90705    0.04444    0.85771    1.000
    Si4718   Si       0.96145    0.06271    0.82526    1.000
    N4719    N        0.99259    0.07943    0.86256    1.000
    Si4720   Si       0.91233    0.18309    0.85000    1.000
    N4721    N        0.84247    0.23595    0.86541    1.000
    N4722    N        0.80322    0.17790    0.86458    1.000
    Si4723   Si       0.84931    0.22778    0.82394    1.000
    Si4724   Si       0.78977    0.18296    0.82342    1.000
    N4725    N        0.95263    0.19397    0.85164    1.000
    N4726    N        0.91393    0.13994    0.84750    1.000
    Si4727   Si       0.97798    0.22537    0.83388    1.000
    N4728    N        0.82399    0.07463    0.92204    1.000
    Si4729   Si       0.84211    0.08559    0.88565    1.000
    N4730    N        0.74995    0.08735    0.93448    1.000
    N4731    N        0.86525    0.02145    0.92716    1.000
    N4732    N        0.86717    0.12260    0.89299    1.000
    N4733    N        0.93799    0.03140    0.92150    1.000
    Si4734   Si       0.96356    0.05599    0.88770    1.000
    N4735    N        0.91801    0.13713    0.91851    1.000
    N4736    N        0.89055    0.19307    0.88689    1.000
    N4737    N        0.79913    0.13827    0.92320    1.000
    N4738    N        0.77158    0.23702    0.88738    1.000
    N4739    N        0.81819    0.21226    0.92408    1.000
    Si4740   Si       0.75247    0.22760    0.92732    1.000
    Si4741   Si       0.80881    0.21600    0.88288    1.000
    Si4742   Si       0.79339    0.13886    0.87989    1.000
    Si4743   Si       0.83604    0.25172    0.93659    1.000
    N4744    N        0.87608    0.25225    0.92500    1.000
    N4745    N        0.97917    0.19534    0.92153    1.000
    Si4746   Si       0.88025    0.15929    0.91451    1.000
    Si4747   Si       0.88202    0.23638    0.88470    1.000
    N4748    N        0.94172    0.25134    0.90979    1.000
    Si4749   Si       0.97867    0.23808    0.92734    1.000
    Si4750   Si       0.90966    0.11754    0.88108    1.000
    N4751    N        0.92497    0.07821    0.88130    1.000
    Si4752   Si       0.98458    0.18486    0.87987    1.000
    N4753    N        0.79892    0.09665    0.98502    1.000
    N4754    N        0.77024    0.03361    0.98188    1.000
    Si4755   Si       0.85314    0.05486    0.95082    1.000
    N4756    N        0.83745    0.04124    0.98939    1.000
    Si4757   Si       0.79116    0.09957    0.94071    1.000
    N4758    N        0.88608    0.08502    0.96531    1.000
    Si4759   Si       0.92122    0.10808    0.95152    1.000
    N4760    N        0.95966    0.08550    0.95184    1.000
    Si4761   Si       0.98243    0.04890    0.95066    1.000
    N4762    N        0.91999    0.13414    0.98534    1.000
    Si4763   Si       0.78923    0.25684    0.98816    1.000
    N4764    N        0.82970    0.24381    0.98015    1.000
    Si4765   Si       0.80790    0.17465    0.94592    1.000
    N4766    N        0.76405    0.19215    0.95112    1.000
    N4767    N        0.80850    0.16705    0.99024    1.000
    N4768    N        0.85974    0.17079    0.95224    1.000
    Si4769   Si       0.85280    0.17140    0.99629    1.000
    N4770    N        0.97811    0.24806    0.96998    1.000
    N4771    N        0.96186    0.18459    0.98853    1.000
    N4772    N        0.91146    0.23589    0.97724    1.000
    Si4773   Si       0.91404    0.25836    0.94198    1.000
    N4774    N        0.90109    0.00883    0.98490    1.000
    Si4775   Si       0.76732    0.18518    0.99538    1.000
    Si4776   Si       0.90434    0.00839    0.94102    1.000
    Si4777   Si       0.83763    0.28824    0.03350    1.000
    Si4778   Si       0.76152    0.30650    0.03320    1.000
    N4779    N        0.76004    0.34979    0.02577    1.000
    N4780    N        0.79874    0.29109    0.01466    1.000
    N4781    N        0.82385    0.37858    0.02372    1.000
    Si4782   Si       0.78428    0.38198    0.04416    1.000
    N4783    N        0.87363    0.28335    0.01031    1.000
    N4784    N        0.92250    0.33625    0.01916    1.000
    Si4785   Si       0.95905    0.32463    0.04236    1.000
    N4786    N        0.97681    0.36949    0.01478    1.000
    N4787    N        0.98257    0.29044    0.02827    1.000
    Si4788   Si       0.94273    0.47585    0.04703    1.000
    Si4789   Si       0.77553    0.45750    0.03740    1.000
    N4790    N        0.81720    0.45353    0.03031    1.000
    Si4791   Si       0.84047    0.41968    0.01805    1.000
    N4792    N        0.76195    0.41861    0.05247    1.000
    N4793    N        0.75363    0.46769    0.99992    1.000
    Si4794   Si       0.97686    0.41172    0.02513    1.000
    Si4795   Si       0.90427    0.44099    0.99871    1.000
    N4796    N        0.92113    0.48043    0.00898    1.000
    N4797    N        0.93133    0.40927    0.99733    1.000
    N4798    N        0.97702    0.50384    0.03740    1.000
    N4799    N        0.87861    0.43399    0.03397    1.000
    N4800    N        0.96025    0.43964    0.05493    1.000
    Si4801   Si       0.84499    0.28397    0.09424    1.000
    N4802    N        0.80171    0.36905    0.08051    1.000
    N4803    N        0.75678    0.30475    0.07615    1.000
    N4804    N        0.84237    0.31700    0.06660    1.000
    Si4805   Si       0.83978    0.35947    0.06212    1.000
    Si4806   Si       0.77625    0.30621    0.11562    1.000
    N4807    N        0.93538    0.29686    0.07057    1.000
    Si4808   Si       0.96742    0.26472    0.05800    1.000
    Si4809   Si       0.91530    0.30994    0.10730    1.000
    N4810    N        0.86963    0.38632    0.07455    1.000
    N4811    N        0.98485    0.34003    0.07458    1.000
    Si4812   Si       0.82736    0.48099    0.06296    1.000
    N4813    N        0.85057    0.45841    0.09293    1.000
    N4814    N        0.78506    0.48514    0.07103    1.000
    Si4815   Si       0.77341    0.50279    0.10996    1.000
    N4816    N        0.90225    0.41927    0.11244    1.000
    N4817    N        0.91830    0.47980    0.08546    1.000
    Si4818   Si       0.87811    0.42950    0.07577    1.000
    N4819    N        0.77824    0.34117    0.14282    1.000
    Si4820   Si       0.80088    0.37295    0.12276    1.000
    N4821    N        0.81287    0.28546    0.12444    1.000
    N4822    N        0.84243    0.37876    0.13568    1.000
    N4823    N        0.74856    0.27880    0.13266    1.000
    Si4824   Si       0.79458    0.26322    0.15838    1.000
    Si4825   Si       0.98236    0.33590    0.11610    1.000
    N4826    N        0.97039    0.36853    0.13922    1.000
    N4827    N        0.95088    0.30728    0.13646    1.000
    N4828    N        0.90405    0.34715    0.12826    1.000
    Si4829   Si       0.93696    0.34468    0.15757    1.000
    Si4830   Si       0.96788    0.26568    0.13473    1.000
    Si4831   Si       0.88174    0.38184    0.11712    1.000
    Si4832   Si       0.84781    0.48166    0.13172    1.000
    Si4833   Si       0.75808    0.43694    0.15344    1.000
    N4834    N        0.84117    0.45331    0.16264    1.000
    Si4835   Si       0.83042    0.41143    0.16118    1.000
    N4836    N        0.75033    0.47792    0.13695    1.000
    N4837    N        0.78997    0.41177    0.14041    1.000
    Si4838   Si       0.97839    0.40923    0.15468    1.000
    Si4839   Si       0.92943    0.45373    0.11806    1.000
    N4840    N        0.91669    0.47107    0.15570    1.000
    N4841    N        0.96825    0.43637    0.12224    1.000
    N4842    N        0.81198    0.51110    0.12768    1.000
    N4843    N        0.88392    0.27987    0.10967    1.000
    Si4844   Si       0.83745    0.29644    0.21092    1.000
    N4845    N        0.81879    0.33469    0.20070    1.000
    N4846    N        0.77004    0.28787    0.18879    1.000
    Si4847   Si       0.83830    0.36749    0.22142    1.000
    Si4848   Si       0.77705    0.33430    0.18613    1.000
    N4849    N        0.74888    0.36244    0.20093    1.000
    Si4850   Si       0.78199    0.26618    0.22513    1.000
    N4851    N        0.82886    0.26052    0.18776    1.000
    N4852    N        0.93803    0.34793    0.19988    1.000
    N4853    N        0.87995    0.30192    0.21746    1.000
    N4854    N        0.88220    0.37192    0.22104    1.000
    Si4855   Si       0.90766    0.33299    0.22801    1.000
    Si4856   Si       0.90566    0.26494    0.22721    1.000
    N4857    N        0.76120    0.43637    0.19679    1.000
    N4858    N        0.82267    0.40112    0.20166    1.000
    Si4859   Si       0.85626    0.46666    0.20209    1.000
    Si4860   Si       0.79532    0.42870    0.22219    1.000
    N4861    N        0.82031    0.46237    0.22663    1.000
    N4862    N        0.95073    0.41544    0.18940    1.000
    Si4863   Si       0.95655    0.38303    0.22052    1.000
    N4864    N        0.87208    0.50559    0.19572    1.000
    Si4865   Si       0.92835    0.45261    0.19331    1.000
    N4866    N        0.89164    0.44590    0.21715    1.000
    N4867    N        0.95713    0.48526    0.20539    1.000
    N4868    N        0.83339    0.35287    0.26300    1.000
    Si4869   Si       0.81280    0.31649    0.27607    1.000
    N4870    N        0.81649    0.28381    0.24840    1.000
    N4871    N        0.75048    0.26846    0.25524    1.000
    Si4872   Si       0.84473    0.26186    0.27736    1.000
    Si4873   Si       0.89316    0.41005    0.24176    1.000
    Si4874   Si       0.97813    0.30405    0.24587    1.000
    N4875    N        0.90393    0.33847    0.27228    1.000
    N4876    N        0.97173    0.33855    0.27198    1.000
    Si4877   Si       0.86886    0.36390    0.28684    1.000
    N4878    N        0.93904    0.29006    0.23465    1.000
    N4879    N        0.77733    0.40616    0.25692    1.000
    N4880    N        0.76097    0.48752    0.24453    1.000
    Si4881   Si       0.80094    0.48329    0.25951    1.000
    N4882    N        0.87278    0.40627    0.28007    1.000
    Si4883   Si       0.97199    0.48050    0.24672    1.000
    N4884    N        0.93615    0.40363    0.25240    1.000
    Si4885   Si       0.94860    0.42445    0.28786    1.000
    N4886    N        0.94563    0.46580    0.27762    1.000
    N4887    N        0.84103    0.29749    0.30284    1.000
    Si4888   Si       0.85611    0.31331    0.33966    1.000
    N4889    N        0.77901    0.26723    0.31885    1.000
    N4890    N        0.85981    0.35537    0.32815    1.000
    Si4891   Si       0.82980    0.38177    0.34617    1.000
    Si4892   Si       0.75920    0.36748    0.30095    1.000
    Si4893   Si       0.75284    0.29004    0.29364    1.000
    Si4894   Si       0.93960    0.33275    0.29839    1.000
    N4895    N        0.94113    0.29133    0.31127    1.000
    N4896    N        0.93876    0.35803    0.33209    1.000
    Si4897   Si       0.88103    0.42979    0.31858    1.000
    N4898    N        0.79571    0.38393    0.31948    1.000
    N4899    N        0.74530    0.42379    0.31473    1.000
    N4900    N        0.84853    0.42142    0.34352    1.000
    Si4901   Si       0.83694    0.48356    0.31196    1.000
    Si4902   Si       0.78520    0.41947    0.29712    1.000
    N4903    N        0.80721    0.45573    0.29212    1.000
    N4904    N        0.97857    0.47642    0.34487    1.000
    N4905    N        0.92433    0.42305    0.32474    1.000
    N4906    N        0.98562    0.40833    0.29882    1.000
    N4907    N        0.87854    0.47136    0.30586    1.000
    N4908    N        0.77577    0.32814    0.28901    1.000
    Si4909   Si       0.91524    0.49209    0.29108    1.000
    N4910    N        0.82204    0.31162    0.36781    1.000
    N4911    N        0.81871    0.37359    0.38931    1.000
    N4912    N        0.75191    0.36479    0.38784    1.000
    N4913    N        0.74761    0.29698    0.36624    1.000
    Si4914   Si       0.83494    0.33592    0.40240    1.000
    Si4915   Si       0.78807    0.28315    0.35869    1.000
    N4916    N        0.93707    0.29107    0.38823    1.000
    N4917    N        0.87832    0.33520    0.40299    1.000
    N4918    N        0.88183    0.28096    0.35014    1.000
    Si4919   Si       0.97358    0.45069    0.38162    1.000
    N4920    N        0.97622    0.40652    0.37146    1.000
    Si4921   Si       0.78333    0.39343    0.40158    1.000
    N4922    N        0.74615    0.49301    0.36749    1.000
    N4923    N        0.79319    0.43389    0.39259    1.000
    Si4924   Si       0.82952    0.44716    0.37349    1.000
    Si4925   Si       0.84431    0.50300    0.39853    1.000
    N4926    N        0.85833    0.46294    0.40318    1.000
    N4927    N        0.81834    0.48345    0.34987    1.000
    N4928    N        0.90885    0.40100    0.38899    1.000
    N4929    N        0.93312    0.46468    0.39719    1.000
    Si4930   Si       0.89768    0.43916    0.40327    1.000
    Si4931   Si       0.93642    0.39383    0.35530    1.000
    Si4932   Si       0.92485    0.27493    0.34706    1.000
    N4933    N        0.81904    0.31105    0.43625    1.000
    Si4934   Si       0.77740    0.29314    0.44968    1.000
    Si4935   Si       0.83581    0.26956    0.44039    1.000
    N4936    N        0.77306    0.38652    0.44180    1.000
    N4937    N        0.74299    0.31662    0.44522    1.000
    Si4938   Si       0.74065    0.35788    0.43108    1.000
    N4939    N        0.86767    0.26399    0.40925    1.000
    Si4940   Si       0.94055    0.26508    0.45872    1.000
    N4941    N        0.91131    0.29504    0.45100    1.000
    N4942    N        0.97542    0.29061    0.44661    1.000
    Si4943   Si       0.90710    0.36674    0.41720    1.000
    N4944    N        0.90556    0.36380    0.45939    1.000
    N4945    N        0.94853    0.35499    0.41128    1.000
    Si4946   Si       0.96501    0.31474    0.41222    1.000
    Si4947   Si       0.85555    0.45575    0.44873    1.000
    N4948    N        0.74368    0.46741    0.43189    1.000
    N4949    N        0.81495    0.44802    0.45465    1.000
    Si4950   Si       0.78625    0.46381    0.42392    1.000
    Si4951   Si       0.94381    0.50328    0.41080    1.000
    N4952    N        0.95961    0.50207    0.45053    1.000
    N4953    N        0.88601    0.42424    0.44409    1.000
    Si4954   Si       0.89839    0.29554    0.40964    1.000
    N4955    N        0.80132    0.50295    0.40859    1.000
    N4956    N        0.79979    0.34683    0.50196    1.000
    N4957    N        0.77036    0.28222    0.49191    1.000
    Si4958   Si       0.86013    0.28198    0.51870    1.000
    Si4959   Si       0.84105    0.35734    0.51702    1.000
    Si4960   Si       0.79018    0.30876    0.52227    1.000
    Si4961   Si       0.77838    0.38058    0.48536    1.000
    N4962    N        0.86513    0.32307    0.50416    1.000
    N4963    N        0.93254    0.31985    0.51020    1.000
    Si4964   Si       0.90222    0.32508    0.48116    1.000
    Si4965   Si       0.96862    0.34150    0.51822    1.000
    N4966    N        0.96753    0.38441    0.50944    1.000
    N4967    N        0.75126    0.45900    0.50122    1.000
    Si4968   Si       0.79391    0.45653    0.49193    1.000
    N4969    N        0.79350    0.41576    0.50890    1.000
    N4970    N        0.78595    0.50420    0.47230    1.000
    N4971    N        0.86399    0.39140    0.50682    1.000
    N4972    N        0.84924    0.26157    0.48078    1.000
    Si4973   Si       0.74340    0.49277    0.46891    1.000
    N4974    N        0.93967    0.49233    0.51814    1.000
    N4975    N        0.98351    0.44145    0.47809    1.000
    N4976    N        0.87799    0.48250    0.47951    1.000
    Si4977   Si       0.90518    0.46791    0.51150    1.000
    Si4978   Si       0.89460    0.40128    0.47802    1.000
    N4979    N        0.91938    0.42823    0.50179    1.000
    N4980    N        0.83638    0.35613    0.56105    1.000
    N4981    N        0.75854    0.32416    0.54932    1.000
    N4982    N        0.82147    0.28591    0.53853    1.000
    N4983    N        0.76668    0.38747    0.56359    1.000
    N4984    N        0.89675    0.32358    0.57338    1.000
    N4985    N        0.96290    0.34130    0.56253    1.000
    N4986    N        0.95254    0.27574    0.56906    1.000
    Si4987   Si       0.92140    0.29925    0.54670    1.000
    N4988    N        0.89826    0.26483    0.53236    1.000
    Si4989   Si       0.98264    0.30465    0.57854    1.000
    Si4990   Si       0.92527    0.35780    0.58077    1.000
    Si4991   Si       0.80926    0.38552    0.57960    1.000
    N4992    N        0.83307    0.41934    0.56531    1.000
    Si4993   Si       0.81685    0.45771    0.56070    1.000
    N4994    N        0.77287    0.45239    0.56938    1.000
    Si4995   Si       0.75978    0.42588    0.53795    1.000
    N4996    N        0.96143    0.49690    0.58278    1.000
    N4997    N        0.96392    0.43497    0.56269    1.000
    Si4998   Si       0.96978    0.47693    0.54432    1.000
    Si4999   Si       0.87127    0.41525    0.54543    1.000
    N5000    N        0.88327    0.45904    0.54844    1.000
    N5001    N        0.90910    0.39329    0.56020    1.000
    Si5002   Si       0.94296    0.41145    0.53323    1.000
    N5003    N        0.81834    0.47874    0.52127    1.000
    N5004    N        0.83789    0.30592    0.61422    1.000
    Si5005   Si       0.75570    0.36411    0.60658    1.000
    N5006    N        0.79845    0.36884    0.61817    1.000
    Si5007   Si       0.82397    0.26448    0.61106    1.000
    Si5008   Si       0.85882    0.33616    0.59099    1.000
    N5009    N        0.94112    0.36868    0.62065    1.000
    N5010    N        0.87531    0.35430    0.63053    1.000
    Si5011   Si       0.97820    0.27302    0.64033    1.000
    Si5012   Si       0.98351    0.35628    0.62865    1.000
    N5013    N        0.98310    0.31140    0.62174    1.000
    Si5014   Si       0.75156    0.49819    0.58935    1.000
    Si5015   Si       0.80955    0.47142    0.63191    1.000
    N5016    N        0.83441    0.47814    0.59610    1.000
    Si5017   Si       0.75533    0.43343    0.60430    1.000
    N5018    N        0.79096    0.43297    0.63096    1.000
    N5019    N        0.77975    0.50364    0.62276    1.000
    N5020    N        0.96208    0.44930    0.63874    1.000
    Si5021   Si       0.87632    0.48044    0.58696    1.000
    Si5022   Si       0.97883    0.49705    0.62556    1.000
    N5023    N        0.89834    0.45742    0.61688    1.000
    Si5024   Si       0.98186    0.42777    0.60328    1.000
    N5025    N        0.83380    0.34790    0.68588    1.000
    N5026    N        0.76086    0.35902    0.67251    1.000
    Si5027   Si       0.85094    0.32551    0.65199    1.000
    Si5028   Si       0.75040    0.27572    0.70349    1.000
    Si5029   Si       0.79222    0.34726    0.70069    1.000
    Si5030   Si       0.90907    0.36976    0.65080    1.000
    N5031    N        0.87319    0.29432    0.66963    1.000
    N5032    N        0.92587    0.33970    0.67956    1.000
    Si5033   Si       0.91478    0.29613    0.67982    1.000
    N5034    N        0.93837    0.26902    0.65599    1.000
    Si5035   Si       0.78522    0.39523    0.65440    1.000
    N5036    N        0.79723    0.41029    0.69350    1.000
    N5037    N        0.82795    0.47368    0.67149    1.000
    N5038    N        0.91243    0.47858    0.68492    1.000
    Si5039   Si       0.98825    0.45612    0.67345    1.000
    Si5040   Si       0.92019    0.44897    0.65161    1.000
    N5041    N        0.90786    0.40912    0.66652    1.000
    N5042    N        0.80506    0.35432    0.74464    1.000
    Si5043   Si       0.84795    0.34817    0.72787    1.000
    N5044    N        0.77791    0.30715    0.71356    1.000
    Si5045   Si       0.78453    0.31697    0.75607    1.000
    N5046    N        0.86193    0.31389    0.75072    1.000
    N5047    N        0.91447    0.27947    0.72001    1.000
    N5048    N        0.93046    0.34345    0.74695    1.000
    Si5049   Si       0.95359    0.34791    0.71213    1.000
    Si5050   Si       0.90547    0.30699    0.75278    1.000
    N5051    N        0.98423    0.31853    0.71427    1.000
    N5052    N        0.87116    0.37992    0.74323    1.000
    Si5053   Si       0.85562    0.41693    0.75725    1.000
    N5054    N        0.85145    0.44576    0.72622    1.000
    Si5055   Si       0.75396    0.49102    0.72200    1.000
    N5056    N        0.78964    0.47174    0.73726    1.000
    Si5057   Si       0.81286    0.44794    0.70608    1.000
    N5058    N        0.91755    0.47699    0.74824    1.000
    N5059    N        0.97432    0.38664    0.70621    1.000
    Si5060   Si       0.96983    0.42125    0.73451    1.000
    N5061    N        0.97224    0.45838    0.71400    1.000
    N5062    N        0.93898    0.41252    0.76037    1.000
    Si5063   Si       0.94411    0.49341    0.71567    1.000
    Si5064   Si       0.88351    0.47495    0.72098    1.000
    Si5065   Si       0.84320    0.27634    0.76063    1.000
    N5066    N        0.79695    0.34833    0.80739    1.000
    N5067    N        0.80307    0.28220    0.77361    1.000
    N5068    N        0.74537    0.32060    0.77490    1.000
    Si5069   Si       0.75123    0.34746    0.80805    1.000
    N5070    N        0.86133    0.26199    0.79860    1.000
    Si5071   Si       0.79538    0.38011    0.77852    1.000
    Si5072   Si       0.94163    0.50216    0.77783    1.000
    Si5073   Si       0.87070    0.46497    0.81464    1.000
    N5074    N        0.91613    0.29996    0.79561    1.000
    N5075    N        0.91035    0.36941    0.80345    1.000
    Si5076   Si       0.93348    0.33452    0.81301    1.000
    Si5077   Si       0.91309    0.37940    0.76217    1.000
    N5078    N        0.75113    0.38467    0.78259    1.000
    Si5079   Si       0.80524    0.45868    0.77845    1.000
    N5080    N        0.83576    0.48208    0.79799    1.000
    N5081    N        0.77478    0.46557    0.80702    1.000
    N5082    N        0.81743    0.41559    0.77546    1.000
    Si5083   Si       0.76008    0.50434    0.79627    1.000
    N5084    N        0.96808    0.46630    0.78987    1.000
    N5085    N        0.91202    0.48321    0.81238    1.000
    Si5086   Si       0.92625    0.44457    0.78794    1.000
    N5087    N        0.88048    0.42890    0.78991    1.000
    N5088    N        0.78310    0.28647    0.83771    1.000
    N5089    N        0.85585    0.31642    0.83911    1.000
    Si5090   Si       0.81255    0.32011    0.83983    1.000
    Si5091   Si       0.75441    0.27172    0.86784    1.000
    Si5092   Si       0.77649    0.37240    0.87111    1.000
    N5093    N        0.80589    0.33991    0.87869    1.000
    N5094    N        0.74487    0.34589    0.84937    1.000
    N5095    N        0.90336    0.26393    0.85781    1.000
    N5096    N        0.97540    0.33627    0.82996    1.000
    Si5097   Si       0.88187    0.34109    0.86561    1.000
    N5098    N        0.91990    0.32574    0.85470    1.000
    Si5099   Si       0.95954    0.34412    0.86949    1.000
    N5100    N        0.97086    0.26737    0.84763    1.000
    Si5101   Si       0.88538    0.28735    0.82388    1.000
    N5102    N        0.79651    0.47013    0.87154    1.000
    N5103    N        0.79496    0.40935    0.85434    1.000
    Si5104   Si       0.76831    0.44696    0.84587    1.000
    Si5105   Si       0.82418    0.43635    0.87243    1.000
    N5106    N        0.86280    0.44478    0.85225    1.000
    N5107    N        0.95178    0.50977    0.85969    1.000
    N5108    N        0.87863    0.38373    0.86048    1.000
    Si5109   Si       0.93227    0.47093    0.85006    1.000
    Si5110   Si       0.89037    0.40475    0.82577    1.000
    N5111    N        0.92920    0.42685    0.83247    1.000
    Si5112   Si       0.96680    0.41394    0.85405    1.000
    N5113    N        0.98116    0.45656    0.85584    1.000
    Si5114   Si       0.94168    0.27895    0.87759    1.000
    Si5115   Si       0.82978    0.33062    0.91761    1.000
    N5116    N        0.82112    0.28979    0.92614    1.000
    N5117    N        0.87354    0.33746    0.90823    1.000
    N5118    N        0.96349    0.31349    0.89964    1.000
    N5119    N        0.96297    0.38335    0.88482    1.000
    N5120    N        0.74018    0.30121    0.89832    1.000
    N5121    N        0.75708    0.38530    0.90508    1.000
    N5122    N        0.84298    0.43033    0.90956    1.000
    Si5123   Si       0.88246    0.42338    0.88731    1.000
    N5124    N        0.91655    0.45592    0.88850    1.000
    Si5125   Si       0.94649    0.39466    0.92271    1.000
    N5126    N        0.90303    0.40004    0.91809    1.000
    Si5127   Si       0.92697    0.45837    0.93168    1.000
    N5128    N        0.96125    0.43234    0.93765    1.000
    Si5129   Si       0.83555    0.36928    0.98208    1.000
    N5130    N        0.81313    0.35796    0.94595    1.000
    Si5131   Si       0.77184    0.36951    0.94352    1.000
    N5132    N        0.76278    0.26204    0.95184    1.000
    N5133    N        0.74599    0.33936    0.96044    1.000
    Si5134   Si       0.74027    0.29889    0.94416    1.000
    N5135    N        0.87358    0.34812    0.97369    1.000
    N5136    N        0.92034    0.29949    0.95634    1.000
    N5137    N        0.93956    0.35999    0.95098    1.000
    Si5138   Si       0.95737    0.31880    0.94205    1.000
    Si5139   Si       0.89521    0.31419    0.98950    1.000
    Si5140   Si       0.89590    0.35903    0.93749    1.000
    N5141    N        0.84656    0.41174    0.97635    1.000
    N5142    N        0.80876    0.46507    0.95672    1.000
    Si5143   Si       0.84739    0.44596    0.94980    1.000
    Si5144   Si       0.76966    0.44397    0.96442    1.000
    N5145    N        0.76943    0.40095    0.97328    1.000
    N5146    N        0.88918    0.45518    0.95601    1.000
    Si5147   Si       0.90007    0.49732    0.97398    1.000
    N5148    N        0.93196    0.49947    0.94377    1.000
    Si5149   Si       0.81883    0.50816    0.96253    1.000
    Si5150   Si       0.93790    0.36776    0.99323    1.000
    N5151    N        0.81046    0.57685    0.04244    1.000
    Si5152   Si       0.77429    0.60232    0.04669    1.000
    N5153    N        0.76719    0.59359    0.00302    1.000
    Si5154   Si       0.80132    0.56790    0.00099    1.000
    N5155    N        0.87606    0.56856    0.03210    1.000
    N5156    N        0.94836    0.56675    0.02474    1.000
    Si5157   Si       0.98228    0.54709    0.04474    1.000
    Si5158   Si       0.91444    0.57579    0.05089    1.000
    N5159    N        0.88555    0.62301    0.99719    1.000
    N5160    N        0.79987    0.72001    0.01823    1.000
    Si5161   Si       0.75644    0.71747    0.01457    1.000
    N5162    N        0.84328    0.66720    0.02295    1.000
    Si5163   Si       0.82976    0.75778    0.01906    1.000
    N5164    N        0.78269    0.64617    0.05174    1.000
    N5165    N        0.85880    0.72797    0.99839    1.000
    N5166    N        0.74261    0.75320    0.99647    1.000
    Si5167   Si       0.98222    0.65198    0.00299    1.000
    Si5168   Si       0.96240    0.72745    0.01908    1.000
    N5169    N        0.90632    0.67787    0.04002    1.000
    Si5170   Si       0.87748    0.63975    0.03857    1.000
    N5171    N        0.97494    0.65405    0.04655    1.000
    Si5172   Si       0.89625    0.70423    0.00596    1.000
    N5173    N        0.92088    0.74005    0.01181    1.000
    Si5174   Si       0.82976    0.69814    0.99417    1.000
    N5175    N        0.84022    0.57329    0.10090    1.000
    N5176    N        0.75469    0.59853    0.08554    1.000
    N5177    N        0.85157    0.51762    0.06690    1.000
    Si5178   Si       0.84453    0.56022    0.06079    1.000
    N5179    N        0.74932    0.53439    0.09471    1.000
    Si5180   Si       0.84429    0.61567    0.11395    1.000
    Si5181   Si       0.92029    0.61727    0.10857    1.000
    N5182    N        0.91497    0.61541    0.06463    1.000
    N5183    N        0.91663    0.54865    0.08396    1.000
    N5184    N        0.98301    0.55885    0.08494    1.000
    Si5185   Si       0.94912    0.55186    0.11225    1.000
    Si5186   Si       0.88949    0.51270    0.08906    1.000
    N5187    N        0.85097    0.63440    0.07469    1.000
    N5188    N        0.81816    0.69612    0.08606    1.000
    Si5189   Si       0.79507    0.72260    0.06313    1.000
    Si5190   Si       0.74706    0.66578    0.06551    1.000
    Si5191   Si       0.82144    0.66220    0.05945    1.000
    N5192    N        0.74904    0.66480    0.10997    1.000
    N5193    N        0.81724    0.75851    0.06263    1.000
    N5194    N        0.75291    0.70859    0.05690    1.000
    Si5195   Si       0.97873    0.71887    0.10350    1.000
    N5196    N        0.97018    0.72446    0.06202    1.000
    N5197    N        0.93789    0.65642    0.10702    1.000
    Si5198   Si       0.93647    0.65516    0.06339    1.000
    N5199    N        0.88242    0.69751    0.10842    1.000
    Si5200   Si       0.83946    0.54502    0.13298    1.000
    N5201    N        0.75382    0.60425    0.15529    1.000
    Si5202   Si       0.76722    0.62469    0.11850    1.000
    N5203    N        0.83729    0.56882    0.16838    1.000
    Si5204   Si       0.74198    0.70109    0.13804    1.000
    N5205    N        0.94626    0.52745    0.14710    1.000
    N5206    N        0.94149    0.58957    0.13334    1.000
    N5207    N        0.88210    0.61484    0.13541    1.000
    N5208    N        0.87556    0.51526    0.13081    1.000
    Si5209   Si       0.90448    0.51396    0.16467    1.000
    N5210    N        0.80931    0.63799    0.13019    1.000
    Si5211   Si       0.79999    0.75495    0.15194    1.000
    Si5212   Si       0.80314    0.67309    0.15614    1.000
    N5213    N        0.78407    0.71286    0.14594    1.000
    N5214    N        0.84068    0.69071    0.16462    1.000
    N5215    N        0.83881    0.75014    0.12905    1.000
    Si5216   Si       0.84198    0.70666    0.12059    1.000
    Si5217   Si       0.91744    0.68608    0.13079    1.000
    N5218    N        0.90808    0.67036    0.16998    1.000
    Si5219   Si       0.93415    0.74776    0.15873    1.000
    N5220    N        0.94146    0.72187    0.12582    1.000
    N5221    N        0.98633    0.67553    0.16781    1.000
    N5222    N        0.80248    0.60856    0.21506    1.000
    Si5223   Si       0.84134    0.58880    0.20492    1.000
    Si5224   Si       0.76701    0.62059    0.19412    1.000
    N5225    N        0.86691    0.62299    0.20635    1.000
    N5226    N        0.93589    0.61331    0.19767    1.000
    N5227    N        0.91240    0.54929    0.19357    1.000
    Si5228   Si       0.88449    0.53652    0.22411    1.000
    N5229    N        0.98063    0.55485    0.19618    1.000
    Si5230   Si       0.97467    0.51362    0.17653    1.000
    Si5231   Si       0.89780    0.62719    0.17504    1.000
    Si5232   Si       0.94485    0.57518    0.17728    1.000
    Si5233   Si       0.81340    0.75783    0.22640    1.000
    N5234    N        0.77189    0.66244    0.18380    1.000
    Si5235   Si       0.75620    0.69787    0.20546    1.000
    N5236    N        0.78814    0.72032    0.22545    1.000
    N5237    N        0.85583    0.75098    0.22981    1.000
    Si5238   Si       0.87773    0.69677    0.18634    1.000
    N5239    N        0.97122    0.65246    0.23185    1.000
    N5240    N        0.87673    0.68506    0.22806    1.000
    N5241    N        0.89717    0.73596    0.18025    1.000
    Si5242   Si       0.96951    0.64163    0.18918    1.000
    N5243    N        0.96510    0.73868    0.18687    1.000
    Si5244   Si       0.96152    0.75227    0.22732    1.000
    N5245    N        0.73653    0.61689    0.22515    1.000
    Si5246   Si       0.80706    0.61618    0.25741    1.000
    Si5247   Si       0.83487    0.55582    0.27876    1.000
    N5248    N        0.79766    0.57920    0.27569    1.000
    N5249    N        0.85428    0.56365    0.23932    1.000
    N5250    N        0.82177    0.51487    0.28270    1.000
    N5251    N        0.84433    0.63284    0.27415    1.000
    N5252    N        0.95842    0.58722    0.26223    1.000
    N5253    N        0.90685    0.51736    0.25637    1.000
    Si5254   Si       0.94416    0.62012    0.23953    1.000
    Si5255   Si       0.98026    0.55798    0.24135    1.000
    N5256    N        0.98161    0.51853    0.25977    1.000
    Si5257   Si       0.74572    0.64663    0.25443    1.000
    Si5258   Si       0.78450    0.70254    0.26392    1.000
    N5259    N        0.78559    0.65398    0.26853    1.000
    N5260    N        0.83049    0.70278    0.27562    1.000
    Si5261   Si       0.86649    0.71697    0.25529    1.000
    N5262    N        0.73848    0.68846    0.24513    1.000
    N5263    N        0.91292    0.63769    0.26308    1.000
    N5264    N        0.89173    0.72510    0.29051    1.000
    Si5265   Si       0.98675    0.68672    0.25440    1.000
    Si5266   Si       0.87295    0.64501    0.24447    1.000
    N5267    N        0.95554    0.71879    0.25574    1.000
    N5268    N        0.85891    0.56324    0.31756    1.000
    N5269    N        0.75926    0.60227    0.32324    1.000
    N5270    N        0.74740    0.54232    0.32174    1.000
    Si5271   Si       0.75694    0.57243    0.29017    1.000
    Si5272   Si       0.89391    0.54863    0.34027    1.000
    N5273    N        0.95872    0.62028    0.32349    1.000
    Si5274   Si       0.96445    0.51824    0.33778    1.000
    N5275    N        0.92286    0.51824    0.32686    1.000
    Si5276   Si       0.98653    0.59007    0.29845    1.000
    N5277    N        0.75583    0.67324    0.33837    1.000
    N5278    N        0.82568    0.66343    0.33900    1.000
    Si5279   Si       0.82471    0.66299    0.29672    1.000
    N5280    N        0.76792    0.72465    0.29815    1.000
    N5281    N        0.82875    0.75572    0.32680    1.000
    N5282    N        0.95202    0.75322    0.31601    1.000
    Si5283   Si       0.98217    0.65970    0.32493    1.000
    Si5284   Si       0.86903    0.73626    0.32613    1.000
    N5285    N        0.89771    0.63991    0.33510    1.000
    N5286    N        0.94725    0.68072    0.30820    1.000
    Si5287   Si       0.92467    0.64325    0.30319    1.000
    N5288    N        0.98813    0.55205    0.31899    1.000
    Si5289   Si       0.93451    0.72066    0.29255    1.000
    N5290    N        0.84223    0.59037    0.39277    1.000
    N5291    N        0.79485    0.55372    0.36110    1.000
    Si5292   Si       0.83682    0.56306    0.35690    1.000
    Si5293   Si       0.75593    0.57117    0.35534    1.000
    N5294    N        0.86644    0.53347    0.37251    1.000
    N5295    N        0.78734    0.63197    0.38915    1.000
    N5296    N        0.96831    0.52843    0.38174    1.000
    N5297    N        0.91840    0.57481    0.36297    1.000
    Si5298   Si       0.94252    0.56328    0.39762    1.000
    Si5299   Si       0.92863    0.61605    0.35773    1.000
    N5300    N        0.93483    0.63234    0.39735    1.000
    N5301    N        0.79106    0.70977    0.38944    1.000
    Si5302   Si       0.74897    0.72489    0.39161    1.000
    Si5303   Si       0.78973    0.67030    0.36704    1.000
    N5304    N        0.87205    0.70936    0.36188    1.000
    Si5305   Si       0.86752    0.66522    0.35370    1.000
    N5306    N        0.97870    0.67818    0.36669    1.000
    N5307    N        0.87043    0.65703    0.39643    1.000
    Si5308   Si       0.95242    0.67274    0.40037    1.000
    Si5309   Si       0.78457    0.51086    0.36793    1.000
    Si5310   Si       0.88342    0.69842    0.40436    1.000
    N5311    N        0.78978    0.56976    0.43921    1.000
    Si5312   Si       0.80461    0.52981    0.44304    1.000
    N5313    N        0.85100    0.52967    0.43789    1.000
    Si5314   Si       0.86272    0.62158    0.41766    1.000
    N5315    N        0.82754    0.63003    0.44181    1.000
    Si5316   Si       0.80524    0.60232    0.41383    1.000
    Si5317   Si       0.75355    0.56596    0.46637    1.000
    N5318    N        0.88890    0.59192    0.43668    1.000
    N5319    N        0.96576    0.58074    0.42825    1.000
    Si5320   Si       0.94960    0.61879    0.43674    1.000
    N5321    N        0.91404    0.53456    0.41464    1.000
    Si5322   Si       0.87554    0.55579    0.41293    1.000
    N5323    N        0.85076    0.70615    0.43239    1.000
    N5324    N        0.80089    0.75392    0.44660    1.000
    Si5325   Si       0.82018    0.73460    0.41289    1.000
    Si5326   Si       0.94143    0.74142    0.43240    1.000
    N5327    N        0.96612    0.66001    0.44136    1.000
    N5328    N        0.92621    0.70716    0.40740    1.000
    N5329    N        0.79799    0.61241    0.50255    1.000
    N5330    N        0.83415    0.54277    0.50351    1.000
    Si5331   Si       0.83182    0.58482    0.51121    1.000
    N5332    N        0.76525    0.55444    0.50586    1.000
    Si5333   Si       0.79503    0.51975    0.51255    1.000
    Si5334   Si       0.86742    0.52501    0.47829    1.000
    N5335    N        0.87038    0.60513    0.50324    1.000
    Si5336   Si       0.94447    0.52382    0.48815    1.000
    N5337    N        0.90585    0.54558    0.48738    1.000
    N5338    N        0.97834    0.55060    0.49283    1.000
    N5339    N        0.93475    0.61486    0.47862    1.000
    Si5340   Si       0.90025    0.58763    0.47702    1.000
    Si5341   Si       0.94410    0.62351    0.52024    1.000
    N5342    N        0.89632    0.67961    0.47262    1.000
    N5343    N        0.85372    0.74072    0.49049    1.000
    N5344    N        0.82935    0.67444    0.49586    1.000
    Si5345   Si       0.80622    0.64568    0.47590    1.000
    Si5346   Si       0.85893    0.70029    0.47406    1.000
    N5347    N        0.76572    0.65922    0.46840    1.000
    Si5348   Si       0.95817    0.74329    0.50712    1.000
    N5349    N        0.95672    0.66648    0.51484    1.000
    N5350    N        0.94984    0.72058    0.47132    1.000
    Si5351   Si       0.93988    0.67675    0.47267    1.000
    N5352    N        0.73643    0.72934    0.47036    1.000
    N5353    N        0.84407    0.59170    0.55452    1.000
    N5354    N        0.77693    0.58551    0.56299    1.000
    Si5355   Si       0.74854    0.55388    0.54648    1.000
    N5356    N        0.77425    0.51614    0.55249    1.000
    Si5357   Si       0.77429    0.62077    0.53737    1.000
    Si5358   Si       0.81383    0.58578    0.58537    1.000
    N5359    N        0.91782    0.61343    0.55412    1.000
    Si5360   Si       0.87692    0.61747    0.54446    1.000
    Si5361   Si       0.83066    0.67407    0.54019    1.000
    N5362    N        0.82918    0.71450    0.55375    1.000
    N5363    N        0.79392    0.65441    0.55778    1.000
    Si5364   Si       0.83845    0.75029    0.53278    1.000
    Si5365   Si       0.96146    0.68590    0.55174    1.000
    N5366    N        0.96044    0.72895    0.54749    1.000
    N5367    N        0.86673    0.65830    0.55900    1.000
    N5368    N        0.81473    0.61610    0.61679    1.000
    N5369    N        0.82644    0.55124    0.60652    1.000
    Si5370   Si       0.79281    0.54100    0.63444    1.000
    N5371    N        0.76274    0.57270    0.63379    1.000
    Si5372   Si       0.85800    0.61713    0.63321    1.000
    Si5373   Si       0.86927    0.54724    0.61387    1.000
    N5374    N        0.88680    0.58705    0.61326    1.000
    Si5375   Si       0.92650    0.59752    0.59622    1.000
    Si5376   Si       0.93293    0.52798    0.59294    1.000
    N5377    N        0.94129    0.52004    0.63586    1.000
    N5378    N        0.94523    0.62584    0.62726    1.000
    N5379    N        0.95355    0.56517    0.58569    1.000
    Si5380   Si       0.98494    0.62174    0.64296    1.000
    N5381    N        0.89150    0.52157    0.58536    1.000
    Si5382   Si       0.83245    0.71817    0.59797    1.000
    Si5383   Si       0.79666    0.65411    0.60047    1.000
    N5384    N        0.76206    0.65036    0.62767    1.000
    N5385    N        0.81063    0.68919    0.61878    1.000
    Si5386   Si       0.96093    0.68238    0.62141    1.000
    N5387    N        0.88083    0.65071    0.62387    1.000
    Si5388   Si       0.89124    0.67736    0.59046    1.000
    N5389    N        0.87508    0.71702    0.60351    1.000
    N5390    N        0.98712    0.71639    0.61010    1.000
    Si5391   Si       0.89436    0.75207    0.62191    1.000
    Si5392   Si       0.97016    0.74684    0.58455    1.000
    N5393    N        0.93574    0.67903    0.58556    1.000
    N5394    N        0.80879    0.54070    0.67484    1.000
    N5395    N        0.78195    0.60499    0.68901    1.000
    N5396    N        0.84867    0.61448    0.67465    1.000
    Si5397   Si       0.84320    0.51399    0.68111    1.000
    Si5398   Si       0.78073    0.60940    0.64468    1.000
    N5399    N        0.74789    0.52964    0.70004    1.000
    N5400    N        0.90092    0.75243    0.66589    1.000
    Si5401   Si       0.91218    0.51915    0.66773    1.000
    N5402    N        0.87302    0.52943    0.65270    1.000
    N5403    N        0.97937    0.61108    0.68524    1.000
    N5404    N        0.91234    0.63114    0.69034    1.000
    Si5405   Si       0.81639    0.63383    0.69863    1.000
    N5406    N        0.79960    0.67299    0.68924    1.000
    Si5407   Si       0.77906    0.68662    0.65056    1.000
    Si5408   Si       0.93105    0.72442    0.67933    1.000
    N5409    N        0.93395    0.68769    0.65538    1.000
    N5410    N        0.96765    0.74652    0.68264    1.000
    Si5411   Si       0.91631    0.64906    0.65131    1.000
    N5412    N        0.76059    0.72580    0.64093    1.000
    N5413    N        0.81566    0.56208    0.73593    1.000
    Si5414   Si       0.75055    0.61249    0.72016    1.000
    Si5415   Si       0.85532    0.54880    0.74397    1.000
    N5416    N        0.75489    0.57533    0.74235    1.000
    N5417    N        0.86310    0.51301    0.71992    1.000
    N5418    N        0.88243    0.57935    0.73063    1.000
    N5419    N        0.95090    0.59558    0.74068    1.000
    Si5420   Si       0.92340    0.56369    0.73498    1.000
    Si5421   Si       0.87563    0.61655    0.70914    1.000
    Si5422   Si       0.94930    0.63067    0.71018    1.000
    N5423    N        0.97403    0.51001    0.74834    1.000
    N5424    N        0.93312    0.53629    0.70372    1.000
    N5425    N        0.96826    0.66478    0.72855    1.000
    N5426    N        0.84713    0.64099    0.73088    1.000
    Si5427   Si       0.76781    0.68529    0.71825    1.000
    N5428    N        0.76113    0.64821    0.73951    1.000
    N5429    N        0.76739    0.71853    0.74634    1.000
    N5430    N        0.86055    0.75501    0.72308    1.000
    N5431    N        0.91731    0.71218    0.71946    1.000
    Si5432   Si       0.89025    0.73134    0.74488    1.000
    Si5433   Si       0.93522    0.68656    0.74803    1.000
    N5434    N        0.90970    0.65001    0.75485    1.000
    Si5435   Si       0.78411    0.55912    0.70491    1.000
    N5436    N        0.78941    0.53501    0.79248    1.000
    N5437    N        0.79059    0.61064    0.78849    1.000
    Si5438   Si       0.82739    0.52250    0.80874    1.000
    N5439    N        0.85689    0.54304    0.78630    1.000
    Si5440   Si       0.78868    0.57230    0.76942    1.000
    Si5441   Si       0.93378    0.62088    0.77621    1.000
    Si5442   Si       0.89635    0.55724    0.80281    1.000
    N5443    N        0.90267    0.60073    0.79854    1.000
    N5444    N        0.92298    0.54271    0.77246    1.000
    Si5445   Si       0.76824    0.64529    0.78163    1.000
    N5446    N        0.79818    0.67577    0.78614    1.000
    Si5447   Si       0.78885    0.71830    0.78597    1.000
    N5448    N        0.82309    0.74460    0.78166    1.000
    Si5449   Si       0.85473    0.72420    0.80461    1.000
    N5450    N        0.85540    0.64790    0.80516    1.000
    Si5451   Si       0.96504    0.67608    0.81033    1.000
    N5452    N        0.95869    0.63391    0.80817    1.000
    Si5453   Si       0.92525    0.73938    0.80780    1.000
    Si5454   Si       0.86887    0.65877    0.76461    1.000
    N5455    N        0.93544    0.69890    0.79033    1.000
    N5456    N        0.87131    0.70124    0.77122    1.000
    N5457    N        0.82957    0.53047    0.85293    1.000
    N5458    N        0.84948    0.59965    0.85262    1.000
    Si5459   Si       0.75642    0.62262    0.84247    1.000
    Si5460   Si       0.85897    0.55747    0.86623    1.000
    N5461    N        0.74981    0.57955    0.83677    1.000
    Si5462   Si       0.82528    0.62417    0.87984    1.000
    Si5463   Si       0.87859    0.62027    0.82795    1.000
    Si5464   Si       0.93672    0.54815    0.86394    1.000
    N5465    N        0.96325    0.57292    0.83979    1.000
    N5466    N        0.89745    0.55151    0.84527    1.000
    Si5467   Si       0.94845    0.61402    0.84487    1.000
    N5468    N        0.90887    0.62712    0.85753    1.000
    N5469    N        0.79699    0.64100    0.85157    1.000
    N5470    N        0.83160    0.70316    0.83396    1.000
    Si5471   Si       0.80621    0.73339    0.85512    1.000
    N5472    N        0.77129    0.72543    0.82460    1.000
    Si5473   Si       0.74067    0.74381    0.84853    1.000
    N5474    N        0.97146    0.69439    0.85043    1.000
    Si5475   Si       0.98854    0.73337    0.85128    1.000
    N5476    N        0.88856    0.74088    0.83021    1.000
    Si5477   Si       0.81901    0.66302    0.82323    1.000
    N5478    N        0.96534    0.75584    0.82035    1.000
    N5479    N        0.80399    0.59721    0.90658    1.000
    Si5480   Si       0.76276    0.61217    0.91108    1.000
    N5481    N        0.81805    0.52528    0.92350    1.000
    Si5482   Si       0.82853    0.56947    0.92873    1.000
    N5483    N        0.76345    0.52911    0.88645    1.000
    Si5484   Si       0.80353    0.51252    0.88352    1.000
    N5485    N        0.74128    0.58069    0.93446    1.000
    N5486    N        0.86735    0.56829    0.90798    1.000
    Si5487   Si       0.95753    0.53006    0.92884    1.000
    Si5488   Si       0.90494    0.57847    0.92368    1.000
    N5489    N        0.93899    0.55941    0.90594    1.000
    N5490    N        0.90896    0.62025    0.93175    1.000
    Si5491   Si       0.78340    0.74681    0.91694    1.000
    Si5492   Si       0.83667    0.68854    0.91797    1.000
    N5493    N        0.81149    0.71559    0.89550    1.000
    N5494    N        0.85251    0.65153    0.89980    1.000
    N5495    N        0.75681    0.71556    0.93216    1.000
    N5496    N        0.73710    0.63030    0.88051    1.000
    Si5497   Si       0.89573    0.64335    0.89762    1.000
    Si5498   Si       0.91014    0.70390    0.93214    1.000
    N5499    N        0.98514    0.68001    0.92413    1.000
    N5500    N        0.86942    0.71354    0.92908    1.000
    N5501    N        0.92044    0.67998    0.89892    1.000
    Si5502   Si       0.96290    0.67123    0.88901    1.000
    N5503    N        0.94269    0.73453    0.93276    1.000
    N5504    N        0.97179    0.62972    0.87913    1.000
    N5505    N        0.83378    0.57685    0.97127    1.000
    N5506    N        0.79247    0.52791    0.99075    1.000
    Si5507   Si       0.74349    0.60700    0.96979    1.000
    Si5508   Si       0.75437    0.51020    0.98707    1.000
    Si5509   Si       0.91493    0.63884    0.97044    1.000
    N5510    N        0.85815    0.50647    0.97765    1.000
    N5511    N        0.90952    0.56680    0.96773    1.000
    Si5512   Si       0.94704    0.57939    0.98392    1.000
    N5513    N        0.97758    0.55500    0.96235    1.000
    N5514    N        0.95444    0.62289    0.98430    1.000
    Si5515   Si       0.87440    0.57903    0.99009    1.000
    Si5516   Si       0.77017    0.67904    0.95584    1.000
    N5517    N        0.81335    0.68520    0.95585    1.000
    N5518    N        0.76233    0.63963    0.94446    1.000
    N5519    N        0.74689    0.68113    0.99366    1.000
    N5520    N        0.90606    0.68115    0.96995    1.000
    Si5521   Si       0.97706    0.71268    0.95168    1.000
    N5522    N        0.97214    0.69598    0.99074    1.000
    Si5523   Si       0.85925    0.75500    0.93619    1.000
    N5524    N        0.81210    0.84957    0.03062    1.000
    Si5525   Si       0.77137    0.85514    0.04274    1.000
    Si5526   Si       0.76015    0.78453    0.02086    1.000
    Si5527   Si       0.84280    0.87507    0.01436    1.000
    N5528    N        0.75101    0.82654    0.01765    1.000
    Si5529   Si       0.84231    0.82291    0.04745    1.000
    N5530    N        0.80013    0.78501    0.00202    1.000
    N5531    N        0.86161    0.79004    0.02585    1.000
    N5532    N        0.87227    0.85441    0.03920    1.000
    Si5533   Si       0.91341    0.84468    0.03005    1.000
    Si5534   Si       0.96870    0.81542    0.03663    1.000
    N5535    N        0.92896    0.80341    0.02070    1.000
    Si5536   Si       0.89695    0.77689    0.00584    1.000
    N5537    N        0.94926    0.85136    0.05404    1.000
    N5538    N        0.82964    0.91408    0.02126    1.000
    Si5539   Si       0.81188    0.97405    0.04652    1.000
    Si5540   Si       0.78959    0.92309    0.00675    1.000
    N5541    N        0.76255    0.89554    0.03059    1.000
    N5542    N        0.85119    0.97891    0.02543    1.000
    N5543    N        0.78368    0.96481    0.01358    1.000
    Si5544   Si       0.94330    0.92834    0.01254    1.000
    Si5545   Si       0.86546    0.93963    0.02838    1.000
    N5546    N        0.95822    0.97018    0.01482    1.000
    N5547    N        0.90022    0.92550    0.00523    1.000
    N5548    N        0.83573    0.81896    0.08926    1.000
    N5549    N        0.76660    0.83922    0.08372    1.000
    Si5550   Si       0.82766    0.77732    0.09917    1.000
    Si5551   Si       0.79753    0.82803    0.11084    1.000
    N5552    N        0.74573    0.77388    0.06056    1.000
    Si5553   Si       0.95228    0.86824    0.09545    1.000
    N5554    N        0.73808    0.94751    0.06914    1.000
    N5555    N        0.98548    0.89379    0.10181    1.000
    N5556    N        0.80817    0.95122    0.08272    1.000
    Si5557   Si       0.84393    0.93761    0.10354    1.000
    Si5558   Si       0.76887    0.94700    0.10239    1.000
    N5559    N        0.87383    0.93459    0.07231    1.000
    N5560    N        0.91725    0.89022    0.10832    1.000
    Si5561   Si       0.91427    0.92675    0.08518    1.000
    N5562    N        0.98658    0.96449    0.09043    1.000
    N5563    N        0.94580    0.92221    0.05512    1.000
    N5564    N        0.80543    0.84561    0.15037    1.000
    N5565    N        0.79018    0.78774    0.12236    1.000
    N5566    N        0.92945    0.78895    0.15164    1.000
    Si5567   Si       0.93931    0.82958    0.15855    1.000
    N5568    N        0.90644    0.85770    0.16301    1.000
    Si5569   Si       0.81512    0.88756    0.14846    1.000
    Si5570   Si       0.74579    0.90756    0.15334    1.000
    N5571    N        0.85165    0.96852    0.13249    1.000
    N5572    N        0.85325    0.90112    0.13217    1.000
    N5573    N        0.78250    0.90948    0.12600    1.000
    Si5574   Si       0.74952    0.98276    0.15149    1.000
    Si5575   Si       0.82849    0.98296    0.16735    1.000
    N5576    N        0.76264    0.99307    0.11295    1.000
    N5577    N        0.90134    0.92929    0.17115    1.000
    Si5578   Si       0.89285    0.96821    0.14559    1.000
    Si5579   Si       0.96247    0.96693    0.12548    1.000
    N5580    N        0.96223    0.00614    0.14394    1.000
    N5581    N        0.97138    0.93596    0.15445    1.000
    Si5582   Si       0.89484    0.89438    0.14501    1.000
    N5583    N        0.89969    0.00169    0.17323    1.000
    N5584    N        0.78593    0.96884    0.16922    1.000
    N5585    N        0.92136    0.96118    0.11492    1.000
    N5586    N        0.96124    0.83230    0.11963    1.000
    N5587    N        0.80909    0.83768    0.22302    1.000
    N5588    N        0.79907    0.77721    0.18872    1.000
    Si5589   Si       0.79426    0.82066    0.18521    1.000
    Si5590   Si       0.82492    0.87821    0.22320    1.000
    N5591    N        0.74825    0.82747    0.18805    1.000
    N5592    N        0.86682    0.88421    0.21366    1.000
    N5593    N        0.87409    0.80721    0.19759    1.000
    N5594    N        0.97069    0.83653    0.18716    1.000
    Si5595   Si       0.88726    0.84703    0.19907    1.000
    Si5596   Si       0.88745    0.77024    0.21040    1.000
    Si5597   Si       0.96510    0.86498    0.22208    1.000
    N5598    N        0.91997    0.84661    0.22986    1.000
    N5599    N        0.92440    0.77675    0.23063    1.000
    Si5600   Si       0.78755    0.93822    0.20113    1.000
    N5601    N        0.84110    0.95562    0.19711    1.000
    N5602    N        0.80823    0.90073    0.18934    1.000
    Si5603   Si       0.94258    0.00766    0.18370    1.000
    N5604    N        0.94128    0.90129    0.21681    1.000
    Si5605   Si       0.87185    0.92731    0.20442    1.000
    N5606    N        0.94997    0.97135    0.20912    1.000
    Si5607   Si       0.94170    0.93337    0.19003    1.000
    N5608    N        0.80115    0.77641    0.26331    1.000
    Si5609   Si       0.79958    0.81916    0.26179    1.000
    N5610    N        0.75671    0.82484    0.26473    1.000
    Si5611   Si       0.84002    0.87542    0.29146    1.000
    N5612    N        0.74099    0.90161    0.26528    1.000
    N5613    N        0.97755    0.83272    0.25105    1.000
    Si5614   Si       0.93844    0.81166    0.25233    1.000
    N5615    N        0.88077    0.86856    0.28065    1.000
    N5616    N        0.81427    0.89482    0.26232    1.000
    Si5617   Si       0.77991    0.92059    0.27013    1.000
    Si5618   Si       0.78144    0.99301    0.25834    1.000
    N5619    N        0.78631    0.95251    0.24128    1.000
    N5620    N        0.81626    0.01141    0.27630    1.000
    N5621    N        0.88092    0.00146    0.24031    1.000
    N5622    N        0.94197    0.95659    0.27330    1.000
    N5623    N        0.94189    0.88785    0.28072    1.000
    Si5624   Si       0.90123    0.96896    0.26234    1.000
    N5625    N        0.88923    0.93236    0.24443    1.000
    Si5626   Si       0.96976    0.97322    0.24730    1.000
    Si5627   Si       0.90766    0.89004    0.24661    1.000
    N5628    N        0.92980    0.81642    0.29492    1.000
    N5629    N        0.75004    0.98743    0.28991    1.000
    Si5630   Si       0.79729    0.83372    0.33392    1.000
    N5631    N        0.77285    0.79857    0.32371    1.000
    N5632    N        0.77787    0.87048    0.34150    1.000
    Si5633   Si       0.79134    0.76349    0.30567    1.000
    N5634    N        0.88589    0.77575    0.33892    1.000
    Si5635   Si       0.92596    0.78774    0.32781    1.000
    N5636    N        0.90447    0.85824    0.34132    1.000
    Si5637   Si       0.91725    0.85596    0.29984    1.000
    N5638    N        0.97057    0.86317    0.34686    1.000
    N5639    N        0.88258    0.98229    0.30054    1.000
    N5640    N        0.84211    0.89680    0.32813    1.000
    N5641    N        0.78302    0.93305    0.31320    1.000
    Si5642   Si       0.76115    0.96941    0.32789    1.000
    Si5643   Si       0.80250    0.90656    0.34187    1.000
    N5644    N        0.79192    0.98724    0.35174    1.000
    Si5645   Si       0.98429    0.97117    0.34276    1.000
    N5646    N        0.98256    0.93072    0.32679    1.000
    Si5647   Si       0.88234    0.89601    0.34366    1.000
    N5648    N        0.94772    0.99230    0.33239    1.000
    Si5649   Si       0.94479    0.92447    0.30295    1.000
    Si5650   Si       0.90718    0.97164    0.33325    1.000
    N5651    N        0.91054    0.92875    0.32878    1.000
    N5652    N        0.81997    0.83663    0.29671    1.000
    Si5653   Si       0.85044    0.85256    0.38896    1.000
    N5654    N        0.82815    0.82485    0.36155    1.000
    N5655    N        0.74721    0.86559    0.39724    1.000
    Si5656   Si       0.84691    0.78580    0.35750    1.000
    N5657    N        0.84415    0.76818    0.39874    1.000
    Si5658   Si       0.91831    0.83670    0.37555    1.000
    N5659    N        0.94339    0.80333    0.36442    1.000
    N5660    N        0.88232    0.82291    0.39688    1.000
    Si5661   Si       0.98166    0.82311    0.35419    1.000
    N5662    N        0.89696    0.99733    0.36480    1.000
    Si5663   Si       0.80254    0.96303    0.38797    1.000
    N5664    N        0.79816    0.92145    0.38126    1.000
    N5665    N        0.83984    0.98066    0.39944    1.000
    N5666    N        0.98500    0.96798    0.38698    1.000
    N5667    N        0.87428    0.89006    0.38806    1.000
    N5668    N        0.84601    0.80832    0.45657    1.000
    Si5669   Si       0.84336    0.85140    0.45885    1.000
    N5670    N        0.82108    0.86136    0.41909    1.000
    Si5671   Si       0.75810    0.76310    0.45415    1.000
    Si5672   Si       0.87282    0.79142    0.42471    1.000
    Si5673   Si       0.96435    0.85481    0.44054    1.000
    N5674    N        0.90924    0.77378    0.44012    1.000
    N5675    N        0.88069    0.87534    0.45415    1.000
    N5676    N        0.96711    0.81442    0.46304    1.000
    N5677    N        0.98011    0.76161    0.42887    1.000
    N5678    N        0.93430    0.86200    0.40960    1.000
    Si5679   Si       0.77302    0.94860    0.45300    1.000
    N5680    N        0.77243    0.90315    0.44789    1.000
    Si5681   Si       0.85209    0.99934    0.43865    1.000
    N5682    N        0.77707    0.97601    0.42181    1.000
    N5683    N        0.92362    0.92834    0.41532    1.000
    Si5684   Si       0.90347    0.89229    0.41930    1.000
    N5685    N        0.98582    0.93498    0.44897    1.000
    Si5686   Si       0.95796    0.95408    0.42104    1.000
    N5687    N        0.94135    0.99115    0.44308    1.000
    N5688    N        0.74282    0.76299    0.41351    1.000
    Si5689   Si       0.78623    0.88784    0.40884    1.000
    N5690    N        0.80621    0.77437    0.51406    1.000
    N5691    N        0.82602    0.87075    0.49203    1.000
    N5692    N        0.75078    0.79764    0.47806    1.000
    Si5693   Si       0.76549    0.79079    0.51939    1.000
    Si5694   Si       0.82741    0.77415    0.47550    1.000
    N5695    N        0.92878    0.77388    0.50918    1.000
    N5696    N        0.90288    0.82504    0.49196    1.000
    Si5697   Si       0.91104    0.86597    0.48579    1.000
    Si5698   Si       0.92782    0.79741    0.47247    1.000
    N5699    N        0.90632    0.88147    0.52470    1.000
    N5700    N        0.94972    0.88006    0.47187    1.000
    N5701    N        0.75265    0.88631    0.50360    1.000
    Si5702   Si       0.79465    0.90154    0.49216    1.000
    Si5703   Si       0.84341    0.96075    0.49626    1.000
    N5704    N        0.80862    0.94172    0.47709    1.000
    N5705    N        0.86620    0.93076    0.51896    1.000
    Si5706   Si       0.96655    0.91664    0.48439    1.000
    N5707    N        0.93110    0.94316    0.49232    1.000
    N5708    N        0.98906    0.91929    0.52269    1.000
    Si5709   Si       0.91662    0.98232    0.47667    1.000
    Si5710   Si       0.90775    0.92579    0.52391    1.000
    N5711    N        0.87203    0.98045    0.47068    1.000
    N5712    N        0.75969    0.82744    0.54367    1.000
    N5713    N        0.85629    0.87154    0.56239    1.000
    N5714    N        0.86451    0.77992    0.55171    1.000
    Si5715   Si       0.93994    0.00336    0.55480    1.000
    Si5716   Si       0.76973    0.82209    0.58533    1.000
    N5717    N        0.91074    0.82294    0.56349    1.000
    Si5718   Si       0.90088    0.86576    0.56565    1.000
    Si5719   Si       0.89802    0.80046    0.52996    1.000
    N5720    N        0.75141    0.95187    0.54246    1.000
    Si5721   Si       0.79635    0.95290    0.54835    1.000
    N5722    N        0.80600    0.91120    0.53444    1.000
    N5723    N        0.97471    0.97763    0.55784    1.000
    N5724    N        0.90262    0.99155    0.58031    1.000
    N5725    N        0.92589    0.93156    0.56251    1.000
    Si5726   Si       0.96945    0.93292    0.55722    1.000
    N5727    N        0.81878    0.98080    0.52627    1.000
    Si5728   Si       0.84525    0.89287    0.52743    1.000
    N5729    N        0.85446    0.85928    0.63281    1.000
    N5730    N        0.75524    0.78320    0.59423    1.000
    Si5731   Si       0.83094    0.86438    0.59597    1.000
    N5732    N        0.74804    0.84908    0.61264    1.000
    Si5733   Si       0.84370    0.79208    0.58878    1.000
    Si5734   Si       0.77976    0.76161    0.62243    1.000
    N5735    N        0.87865    0.79423    0.61522    1.000
    N5736    N        0.95628    0.82183    0.61496    1.000
    Si5737   Si       0.92176    0.80261    0.59817    1.000
    Si5738   Si       0.93839    0.85556    0.63537    1.000
    N5739    N        0.91138    0.87651    0.60743    1.000
    N5740    N        0.93241    0.76105    0.60054    1.000
    N5741    N        0.84750    0.00607    0.62158    1.000
    Si5742   Si       0.80554    0.00449    0.60404    1.000
    Si5743   Si       0.76190    0.88700    0.62054    1.000
    N5744    N        0.80338    0.89484    0.60704    1.000
    Si5745   Si       0.82272    0.93384    0.61274    1.000
    N5746    N        0.80396    0.96482    0.58942    1.000
    Si5747   Si       0.88099    0.89668    0.63277    1.000
    Si5748   Si       0.90418    0.95123    0.59447    1.000
    N5749    N        0.92812    0.94477    0.63061    1.000
    N5750    N        0.98395    0.91320    0.59366    1.000
    Si5751   Si       0.96566    0.92066    0.63278    1.000
    N5752    N        0.86667    0.93031    0.60681    1.000
    N5753    N        0.81932    0.75793    0.60503    1.000
    N5754    N        0.81280    0.82482    0.59061    1.000
    N5755    N        0.84820    0.80447    0.67704    1.000
    Si5756   Si       0.80550    0.80418    0.68962    1.000
    Si5757   Si       0.75480    0.86127    0.69003    1.000
    N5758    N        0.78623    0.78926    0.65457    1.000
    N5759    N        0.79265    0.84539    0.69938    1.000
    N5760    N        0.91194    0.83613    0.66255    1.000
    Si5761   Si       0.87982    0.77837    0.69364    1.000
    Si5762   Si       0.87352    0.82427    0.64713    1.000
    N5763    N        0.96659    0.88262    0.65475    1.000
    Si5764   Si       0.92789    0.83955    0.70166    1.000
    Si5765   Si       0.99073    0.87301    0.69057    1.000
    N5766    N        0.75815    0.95654    0.68253    1.000
    N5767    N        0.76306    0.89653    0.66384    1.000
    Si5768   Si       0.84604    0.98245    0.65912    1.000
    Si5769   Si       0.79136    0.92800    0.67986    1.000
    N5770    N        0.82081    0.94838    0.65376    1.000
    Si5771   Si       0.97740    0.96454    0.68891    1.000
    N5772    N        0.88930    0.98453    0.66868    1.000
    Si5773   Si       0.90781    0.94595    0.66975    1.000
    N5774    N        0.94196    0.93954    0.69798    1.000
    N5775    N        0.88222    0.91002    0.67411    1.000
    N5776    N        0.96014    0.00451    0.67964    1.000
    Si5777   Si       0.81281    0.87150    0.72728    1.000
    N5778    N        0.79182    0.77849    0.72206    1.000
    N5779    N        0.85463    0.86445    0.72538    1.000
    Si5780   Si       0.82663    0.76891    0.74675    1.000
    N5781    N        0.83867    0.80997    0.75663    1.000
    Si5782   Si       0.87412    0.83200    0.74409    1.000
    N5783    N        0.90485    0.80921    0.72309    1.000
    N5784    N        0.92025    0.87847    0.71870    1.000
    N5785    N        0.97212    0.83466    0.70385    1.000
    Si5786   Si       0.75547    0.75817    0.73193    1.000
    Si5787   Si       0.82585    0.93386    0.75019    1.000
    N5788    N        0.80705    0.91244    0.71843    1.000
    N5789    N        0.80635    0.97275    0.75282    1.000
    Si5790   Si       0.79914    0.00306    0.72162    1.000
    N5791    N        0.98861    0.90134    0.72469    1.000
    Si5792   Si       0.94636    0.91037    0.72864    1.000
    N5793    N        0.90903    0.99118    0.74440    1.000
    N5794    N        0.86982    0.93042    0.74097    1.000
    Si5795   Si       0.88107    0.89663    0.71349    1.000
    Si5796   Si       0.81113    0.82998    0.78435    1.000
    N5797    N        0.78351    0.80277    0.80401    1.000
    Si5798   Si       0.74570    0.87036    0.76394    1.000
    N5799    N        0.78987    0.86144    0.76255    1.000
    N5800    N        0.88550    0.95279    0.80648    1.000
    N5801    N        0.89679    0.83141    0.78184    1.000
    Si5802   Si       0.98066    0.79490    0.80932    1.000
    N5803    N        0.96671    0.80199    0.76654    1.000
    N5804    N        0.91236    0.75818    0.76964    1.000
    Si5805   Si       0.87669    0.84217    0.81881    1.000
    Si5806   Si       0.74126    0.79957    0.79644    1.000
    Si5807   Si       0.78693    0.91641    0.81030    1.000
    Si5808   Si       0.79382    0.99260    0.79104    1.000
    N5809    N        0.82575    0.91494    0.79042    1.000
    N5810    N        0.74943    0.91066    0.78827    1.000
    Si5811   Si       0.85986    0.91917    0.81928    1.000
    N5812    N        0.78830    0.95927    0.82030    1.000
    N5813    N        0.93716    0.93006    0.76746    1.000
    Si5814   Si       0.96162    0.93200    0.80294    1.000
    Si5815   Si       0.92250    0.79863    0.76239    1.000
    Si5816   Si       0.89885    0.95324    0.76466    1.000
    Si5817   Si       0.80639    0.80532    0.84140    1.000
    N5818    N        0.83000    0.76985    0.84921    1.000
    N5819    N        0.78340    0.82391    0.87645    1.000
    Si5820   Si       0.79195    0.86529    0.87987    1.000
    Si5821   Si       0.87240    0.77418    0.85650    1.000
    N5822    N        0.89335    0.81128    0.84548    1.000
    Si5823   Si       0.93217    0.82327    0.86400    1.000
    N5824    N        0.96704    0.82475    0.83777    1.000
    Si5825   Si       0.98514    0.86334    0.84347    1.000
    N5826    N        0.92513    0.86457    0.87770    1.000
    N5827    N        0.77970    0.89347    0.84746    1.000
    N5828    N        0.83811    0.93040    0.85505    1.000
    Si5829   Si       0.80546    0.95927    0.86011    1.000
    Si5830   Si       0.74701    0.90873    0.87314    1.000
    N5831    N        0.82422    0.99503    0.87455    1.000
    N5832    N        0.88753    0.88510    0.82449    1.000
    N5833    N        0.89229    0.00312    0.85128    1.000
    Si5834   Si       0.90986    0.96596    0.84087    1.000
    Si5835   Si       0.92229    0.89609    0.84876    1.000
    Si5836   Si       0.97498    0.99070    0.85049    1.000
    N5837    N        0.96117    0.89546    0.82943    1.000
    N5838    N        0.94964    0.96813    0.82611    1.000
    N5839    N        0.91066    0.93300    0.86898    1.000
    N5840    N        0.83309    0.83753    0.82060    1.000
    Si5841   Si       0.75108    0.80030    0.89481    1.000
    N5842    N        0.82683    0.87714    0.90144    1.000
    N5843    N        0.76870    0.76118    0.87796    1.000
    N5844    N        0.75980    0.87921    0.90653    1.000
    Si5845   Si       0.84207    0.85470    0.93718    1.000
    N5846    N        0.92713    0.97032    0.92883    1.000
    N5847    N        0.87213    0.77343    0.89968    1.000
    Si5848   Si       0.91918    0.86577    0.91920    1.000
    N5849    N        0.93588    0.79777    0.89904    1.000
    Si5850   Si       0.89849    0.80052    0.92315    1.000
    Si5851   Si       0.96108    0.76876    0.91471    1.000
    N5852    N        0.88382    0.84070    0.92722    1.000
    N5853    N        0.95425    0.85117    0.93784    1.000
    Si5854   Si       0.83293    0.91916    0.89783    1.000
    N5855    N        0.78985    0.93865    0.89674    1.000
    Si5856   Si       0.83659    0.98858    0.91945    1.000
    N5857    N        0.85968    0.94943    0.91714    1.000
    Si5858   Si       0.78185    0.94776    0.93819    1.000
    N5859    N        0.90855    0.90507    0.93518    1.000
    Si5860   Si       0.96421    0.99606    0.92418    1.000
    N5861    N        0.98101    0.97425    0.88970    1.000
    Si5862   Si       0.90430    0.93923    0.91250    1.000
    Si5863   Si       0.79308    0.79708    0.96046    1.000
    N5864    N        0.80497    0.83735    0.95060    1.000
    Si5865   Si       0.77492    0.87145    0.94889    1.000
    N5866    N        0.85458    0.87697    0.97276    1.000
    N5867    N        0.75760    0.78560    0.93692    1.000
    N5868    N        0.81672    0.76346    0.94054    1.000
    Si5869   Si       0.96140    0.86276    0.98023    1.000
    N5870    N        0.88920    0.78210    0.96134    1.000
    N5871    N        0.92066    0.86355    0.99323    1.000
    N5872    N        0.98641    0.82945    0.99836    1.000
    N5873    N        0.80625    0.98341    0.94967    1.000
    Si5874   Si       0.77616    0.99185    0.97925    1.000
    N5875    N        0.74564    0.97163    0.95331    1.000
    N5876    N        0.78549    0.91046    0.96414    1.000
    Si5877   Si       0.89404    0.89353    0.97419    1.000
    N5878    N        0.97343    0.00957    0.96966    1.000
    N5879    N        0.96927    0.90556    0.98756    1.000
