# CIF file generated by openbabel 3.1.1, see https://openbabel.org
data_I
_chemical_name_common '3.01-58.aims'
_cell_length_a 39.8907
_cell_length_b 39.8907
_cell_length_c 39.8907
_cell_angle_alpha 90
_cell_angle_beta 90
_cell_angle_gamma 90
loop_
    _atom_site_label
    _atom_site_type_symbol
    _atom_site_fract_x
    _atom_site_fract_y
    _atom_site_fract_z
    _atom_site_occupancy
    Si0      Si       0.08375    0.05680    0.02855    1.000
    N1       N        0.09478    0.09966    0.02126    1.000
    Si2      Si       0.01357    0.04361    0.02087    1.000
    Si3      Si       0.99729    0.10412    0.03423    1.000
    N4       N        0.05298    0.04066    0.00328    1.000
    N5       N        0.01402    0.07049    0.05577    1.000
    Si6      Si       0.06683    0.13192    0.00986    1.000
    N7       N        0.11888    0.03178    0.01955    1.000
    N8       N        0.18161    0.01874    0.04670    1.000
    Si9      Si       0.15014    0.04958    0.04386    1.000
    N10      N        0.16702    0.07916    0.01640    1.000
    N11      N        0.21820    0.12155    0.02019    1.000
    Si12     Si       0.13422    0.10846    0.01014    1.000
    N13      N        0.22982    0.05180    0.00693    1.000
    Si14     Si       0.20486    0.01515    0.01043    1.000
    Si15     Si       0.20604    0.08681    0.99893    1.000
    N16      N        0.02643    0.13440    0.02909    1.000
    N17      N        0.02363    0.21546    0.03344    1.000
    N18      N        0.08510    0.23794    0.03021    1.000
    N19      N        0.08464    0.17208    0.01949    1.000
    Si20     Si       0.00866    0.17483    0.03074    1.000
    Si21     Si       0.05687    0.20898    0.00737    1.000
    Si22     Si       0.00613    0.25303    0.01863    1.000
    Si23     Si       0.12564    0.17899    0.02948    1.000
    N24      N        0.18137    0.23829    0.04874    1.000
    N25      N        0.13982    0.20958    0.00191    1.000
    Si26     Si       0.18029    0.22146    0.00741    1.000
    N27      N        0.15067    0.14400    0.02672    1.000
    N28      N        0.20218    0.18527    0.00724    1.000
    Si29     Si       0.19293    0.15407    0.03518    1.000
    N30      N        0.07628    0.05294    0.07202    1.000
    Si31     Si       0.04021    0.06909    0.09030    1.000
    N32      N        0.01910    0.03499    0.10851    1.000
    Si33     Si       0.10985    0.04148    0.09622    1.000
    N34      N        0.04323    0.09975    0.12027    1.000
    N35      N        0.14206    0.06690    0.08283    1.000
    N36      N        0.20335    0.01301    0.11243    1.000
    Si37     Si       0.15592    0.09614    0.11033    1.000
    Si38     Si       0.04321    0.25608    0.10168    1.000
    N39      N        0.99404    0.17355    0.07173    1.000
    Si40     Si       0.09964    0.22828    0.07075    1.000
    N41      N        0.06947    0.22126    0.10093    1.000
    N42      N        0.20930    0.16551    0.07446    1.000
    N43      N        0.12554    0.19379    0.07052    1.000
    N44      N        0.16107    0.13854    0.10493    1.000
    Si45     Si       0.22346    0.24376    0.05977    1.000
    Si46     Si       0.20524    0.13673    0.10933    1.000
    Si47     Si       0.14306    0.17848    0.10753    1.000
    N48      N        0.10315    0.03748    0.13816    1.000
    Si49     Si       0.04092    0.12983    0.14900    1.000
    N50      N        0.13154    0.09642    0.14554    1.000
    Si51     Si       0.12133    0.06176    0.16914    1.000
    Si52     Si       0.22146    0.05352    0.11732    1.000
    N53      N        0.20028    0.09206    0.11483    1.000
    N54      N        0.10707    0.16960    0.13089    1.000
    Si55     Si       0.07146    0.19439    0.13574    1.000
    Si56     Si       0.00220    0.20109    0.13398    1.000
    N57      N        0.03482    0.16856    0.13053    1.000
    N58      N        0.00985    0.24595    0.12654    1.000
    N59      N        0.16260    0.20613    0.14027    1.000
    N60      N        0.20928    0.15406    0.14926    1.000
    Si61     Si       0.16533    0.24938    0.14552    1.000
    Si62     Si       0.11745    0.13568    0.15909    1.000
    Si63     Si       0.17849    0.17635    0.17047    1.000
    N64      N        0.09045    0.06864    0.19938    1.000
    Si65     Si       0.05842    0.04051    0.20485    1.000
    N66      N        0.01879    0.05307    0.19189    1.000
    Si67     Si       0.00990    0.09266    0.21049    1.000
    Si68     Si       0.07978    0.10955    0.21168    1.000
    N69      N        0.00879    0.12589    0.18010    1.000
    N70      N        0.07707    0.13020    0.17264    1.000
    N71      N        0.15450    0.03947    0.18696    1.000
    Si72     Si       0.15838    0.03029    0.23031    1.000
    Si73     Si       0.03165    0.22047    0.19635    1.000
    N74      N        0.00170    0.19559    0.17622    1.000
    N75      N        0.06693    0.21481    0.17378    1.000
    Si76     Si       0.14195    0.13912    0.23057    1.000
    N77      N        0.17979    0.25562    0.18669    1.000
    N78      N        0.19637    0.19452    0.20588    1.000
    N79      N        0.14854    0.14791    0.18614    1.000
    Si80     Si       0.21438    0.23337    0.19883    1.000
    Si81     Si       0.05270    0.09107    0.27536    1.000
    N82      N        0.05419    0.02373    0.24594    1.000
    Si83     Si       0.08805    0.03003    0.27255    1.000
    N84      N        0.09323    0.07293    0.27890    1.000
    N85      N        0.04391    0.10070    0.23418    1.000
    N86      N        0.98954    0.01844    0.27729    1.000
    Si87     Si       0.19769    0.09453    0.25312    1.000
    N88      N        0.18820    0.05131    0.25133    1.000
    N89      N        0.15472    0.10298    0.25213    1.000
    N90      N        0.12595    0.01355    0.25432    1.000
    Si91     Si       0.13015    0.09125    0.28836    1.000
    N92      N        0.21923    0.13113    0.23757    1.000
    Si93     Si       0.98893    0.20192    0.24971    1.000
    N94      N        0.09980    0.13768    0.23739    1.000
    N95      N        0.03287    0.20870    0.23854    1.000
    Si96     Si       0.06338    0.22505    0.26553    1.000
    Si97     Si       0.09352    0.15122    0.27792    1.000
    N98      N        0.09476    0.19717    0.28322    1.000
    N99      N        0.22195    0.25180    0.23875    1.000
    Si100    Si       0.20245    0.17199    0.24357    1.000
    N101     N        0.22096    0.19304    0.27693    1.000
    Si102    Si       0.14148    0.20223    0.27921    1.000
    N103     N        0.15380    0.24123    0.26435    1.000
    N104     N        0.15675    0.17228    0.25349    1.000
    Si105    Si       0.99544    0.04223    0.31337    1.000
    N106     N        0.02003    0.07514    0.29873    1.000
    Si107    Si       0.99338    0.10470    0.31825    1.000
    N108     N        0.01572    0.02650    0.34817    1.000
    N109     N        0.05918    0.12758    0.29610    1.000
    Si110    Si       0.05854    0.01878    0.34799    1.000
    Si111    Si       0.05669    0.13554    0.33927    1.000
    Si112    Si       0.21344    0.10636    0.33474    1.000
    N113     N        0.15055    0.06113    0.31344    1.000
    N114     N        0.21561    0.02127    0.31272    1.000
    Si115    Si       0.23434    0.04189    0.34422    1.000
    N116     N        0.21633    0.08966    0.29302    1.000
    Si117    Si       0.13170    0.04758    0.34934    1.000
    N118     N        0.12293    0.13163    0.30435    1.000
    Si119    Si       0.18903    0.04871    0.29449    1.000
    N120     N        0.17739    0.12605    0.34688    1.000
    N121     N        0.04356    0.22981    0.30299    1.000
    Si122    Si       0.00569    0.24888    0.30518    1.000
    Si123    Si       0.07743    0.20877    0.32191    1.000
    N124     N        0.06173    0.17834    0.34459    1.000
    N125     N        0.17048    0.25422    0.33465    1.000
    N126     N        0.22752    0.24822    0.30454    1.000
    Si127    Si       0.20519    0.20988    0.31399    1.000
    N128     N        0.16273    0.19334    0.31688    1.000
    Si129    Si       0.14865    0.15431    0.33269    1.000
    Si130    Si       0.09676    0.07989    0.38884    1.000
    N131     N        0.08486    0.11740    0.36963    1.000
    N132     N        0.08920    0.04925    0.35967    1.000
    Si133    Si       0.99416    0.01603    0.38475    1.000
    Si134    Si       0.99744    0.13272    0.38634    1.000
    N135     N        0.01734    0.12386    0.34817    1.000
    N136     N        0.14180    0.07176    0.38599    1.000
    Si137    Si       0.17709    0.09512    0.38190    1.000
    N138     N        0.20549    0.07186    0.35812    1.000
    Si139    Si       0.15545    0.03406    0.40522    1.000
    N140     N        0.14496    0.00935    0.36921    1.000
    Si141    Si       0.08420    0.25310    0.37621    1.000
    N142     N        0.00597    0.17657    0.38781    1.000
    Si143    Si       0.10066    0.15133    0.39070    1.000
    Si144    Si       0.04292    0.19325    0.38259    1.000
    N145     N        0.04307    0.23720    0.37835    1.000
    N146     N        0.10680    0.22890    0.34606    1.000
    Si147    Si       0.23346    0.16318    0.37412    1.000
    N148     N        0.22059    0.20086    0.35403    1.000
    N149     N        0.19965    0.16168    0.40535    1.000
    N150     N        0.13407    0.17359    0.36986    1.000
    N151     N        0.16800    0.22087    0.39146    1.000
    Si152    Si       0.21152    0.22143    0.39212    1.000
    Si153    Si       0.14802    0.21510    0.35375    1.000
    Si154    Si       0.15680    0.17650    0.40934    1.000
    Si155    Si       0.04890    0.10079    0.44553    1.000
    Si156    Si       0.00918    0.03642    0.45722    1.000
    N157     N        0.02095    0.02196    0.41879    1.000
    N158     N        0.08082    0.07431    0.42989    1.000
    N159     N        0.02237    0.11627    0.41752    1.000
    Si160    Si       0.10088    0.05030    0.46245    1.000
    N161     N        0.07514    0.13054    0.46319    1.000
    N162     N        0.12738    0.02664    0.43658    1.000
    Si163    Si       0.20503    0.06176    0.44442    1.000
    N164     N        0.19279    0.09792    0.42316    1.000
    N165     N        0.19738    0.02884    0.41612    1.000
    Si166    Si       0.11759    0.12566    0.46363    1.000
    Si167    Si       0.06335    0.17075    0.45286    1.000
    N168     N        0.10652    0.24663    0.41238    1.000
    N169     N        0.07201    0.17693    0.41072    1.000
    Si170    Si       0.21355    0.13425    0.43596    1.000
    N171     N        0.22738    0.21305    0.43143    1.000
    N172     N        0.12831    0.14666    0.42579    1.000
    Si173    Si       0.20006    0.19817    0.46260    1.000
    Si174    Si       0.14772    0.24095    0.42696    1.000
    N175     N        0.15779    0.20291    0.45039    1.000
    Si176    Si       0.00903    0.09048    0.50906    1.000
    N177     N        0.08018    0.04101    0.50160    1.000
    Si178    Si       0.04966    0.01041    0.51186    1.000
    N179     N        0.02326    0.07487    0.47147    1.000
    N180     N        0.18914    0.04395    0.48089    1.000
    Si181    Si       0.21346    0.02256    0.51112    1.000
    Si182    Si       0.15990    0.06963    0.50009    1.000
    N183     N        0.12828    0.08333    0.47351    1.000
    N184     N        0.18320    0.10140    0.51746    1.000
    N185     N        0.01002    0.23380    0.50886    1.000
    Si186    Si       0.00324    0.16910    0.49745    1.000
    Si187    Si       0.04992    0.21881    0.49370    1.000
    N188     N        0.08775    0.19924    0.47809    1.000
    N189     N        0.02620    0.18615    0.46767    1.000
    N190     N        0.05204    0.25693    0.46876    1.000
    Si191    Si       0.11594    0.25286    0.51232    1.000
    Si192    Si       0.13012    0.19266    0.48367    1.000
    Si193    Si       0.18095    0.14267    0.50912    1.000
    N194     N        0.13968    0.21588    0.51795    1.000
    N195     N        0.20643    0.21381    0.50380    1.000
    N196     N        0.20383    0.15612    0.47240    1.000
    N197     N        0.14020    0.15101    0.49306    1.000
    Si198    Si       0.07121    0.06213    0.54052    1.000
    N199     N        0.04489    0.02846    0.55229    1.000
    N200     N        0.10334    0.07276    0.56881    1.000
    N201     N        0.04583    0.09762    0.53323    1.000
    Si202    Si       0.14358    0.05584    0.57123    1.000
    Si203    Si       0.20325    0.08699    0.55312    1.000
    N204     N        0.21620    0.04552    0.54643    1.000
    N205     N        0.23283    0.11460    0.56652    1.000
    N206     N        0.14601    0.04341    0.53025    1.000
    N207     N        0.17493    0.08213    0.58400    1.000
    Si208    Si       0.04953    0.13500    0.55339    1.000
    Si209    Si       0.07424    0.22887    0.57199    1.000
    Si210    Si       0.01701    0.18210    0.56776    1.000
    N211     N        0.08753    0.14347    0.57535    1.000
    N212     N        0.03432    0.16954    0.53017    1.000
    N213     N        0.07668    0.23870    0.53017    1.000
    N214     N        0.17695    0.22855    0.57280    1.000
    N215     N        0.18966    0.16412    0.54448    1.000
    Si216    Si       0.21594    0.15372    0.57891    1.000
    Si217    Si       0.21194    0.25639    0.57362    1.000
    Si218    Si       0.17760    0.20716    0.53647    1.000
    Si219    Si       0.10071    0.10797    0.59681    1.000
    N220     N        0.06951    0.10064    0.62519    1.000
    Si221    Si       0.17770    0.10163    0.62210    1.000
    N222     N        0.13599    0.11867    0.62064    1.000
    N223     N        0.15345    0.01787    0.58840    1.000
    Si224    Si       0.03185    0.23037    0.62063    1.000
    Si225    Si       0.08598    0.17648    0.60295    1.000
    N226     N        0.04749    0.19931    0.59119    1.000
    N227     N        0.11242    0.20786    0.58898    1.000
    N228     N        0.99223    0.25376    0.62436    1.000
    N229     N        0.09573    0.16928    0.64482    1.000
    N230     N        0.01836    0.14095    0.58230    1.000
    N231     N        0.22884    0.25094    0.61276    1.000
    Si232    Si       0.14423    0.23257    0.59943    1.000
    N233     N        0.20236    0.14065    0.61944    1.000
    Si234    Si       0.07413    0.09143    0.66675    1.000
    N235     N        0.07188    0.04866    0.66802    1.000
    Si236    Si       0.03392    0.02956    0.66218    1.000
    N237     N        0.03883    0.10111    0.69040    1.000
    Si238    Si       0.99971    0.09229    0.67413    1.000
    N239     N        0.10867    0.11503    0.68132    1.000
    Si240    Si       0.10069    0.01772    0.67535    1.000
    N241     N        0.01494    0.01365    0.69762    1.000
    N242     N        0.00352    0.05893    0.64708    1.000
    N243     N        0.19093    0.07666    0.65773    1.000
    Si244    Si       0.17616    0.03631    0.66870    1.000
    Si245    Si       0.22451    0.08950    0.68189    1.000
    N246     N        0.13671    0.02010    0.65324    1.000
    N247     N        0.20556    0.00788    0.65628    1.000
    N248     N        0.23669    0.13428    0.67960    1.000
    N249     N        0.04806    0.21873    0.66046    1.000
    Si250    Si       0.07764    0.19179    0.67807    1.000
    Si251    Si       0.05907    0.25576    0.68100    1.000
    N252     N        0.11614    0.21255    0.69406    1.000
    Si253    Si       0.12836    0.14247    0.65588    1.000
    Si254    Si       0.21752    0.22626    0.69267    1.000
    Si255    Si       0.15553    0.20621    0.67804    1.000
    N256     N        0.22062    0.19900    0.65876    1.000
    N257     N        0.16334    0.16425    0.67083    1.000
    Si258    Si       0.20596    0.15552    0.65936    1.000
    N259     N        0.15559    0.23251    0.64215    1.000
    Si260    Si       0.04485    0.09363    0.73343    1.000
    N261     N        0.08835    0.09341    0.74179    1.000
    N262     N        0.02707    0.05868    0.74910    1.000
    Si263    Si       0.09735    0.13142    0.72026    1.000
    N264     N        0.03272    0.12718    0.75846    1.000
    Si265    Si       0.99162    0.03950    0.73018    1.000
    N266     N        0.21679    0.08220    0.72626    1.000
    Si267    Si       0.21277    0.03933    0.73280    1.000
    N268     N        0.17516    0.03106    0.71253    1.000
    Si269    Si       0.14454    0.01427    0.74021    1.000
    Si270    Si       0.03250    0.23559    0.75389    1.000
    N271     N        0.06191    0.23638    0.72085    1.000
    Si272    Si       0.10564    0.23903    0.72572    1.000
    Si273    Si       0.04701    0.16701    0.75029    1.000
    N274     N        0.07019    0.16547    0.71241    1.000
    N275     N        0.01356    0.19566    0.75193    1.000
    N276     N        0.12551    0.15169    0.74619    1.000
    N277     N        0.18025    0.21934    0.71397    1.000
    Si278    Si       0.17793    0.22624    0.75830    1.000
    Si279    Si       0.03000    0.05312    0.79234    1.000
    N280     N        0.07085    0.06470    0.80023    1.000
    Si281    Si       0.00614    0.12298    0.79235    1.000
    Si282    Si       0.10500    0.07201    0.77553    1.000
    N283     N        0.00455    0.02290    0.81040    1.000
    N284     N        0.00635    0.08506    0.81439    1.000
    N285     N        0.12607    0.03198    0.77612    1.000
    N286     N        0.13673    0.09658    0.79680    1.000
    N287     N        0.20556    0.01954    0.77370    1.000
    N288     N        0.23400    0.07833    0.78847    1.000
    Si289    Si       0.22608    0.10871    0.75867    1.000
    N290     N        0.07446    0.17828    0.78373    1.000
    Si291    Si       0.11693    0.18558    0.77360    1.000
    Si292    Si       0.21685    0.16705    0.78939    1.000
    N293     N        0.13004    0.22411    0.76229    1.000
    N294     N        0.19138    0.13407    0.77138    1.000
    Si295    Si       0.14803    0.13307    0.77637    1.000
    Si296    Si       0.13196    0.25245    0.79958    1.000
    N297     N        0.14304    0.16943    0.80252    1.000
    N298     N        0.21424    0.20533    0.76969    1.000
    N299     N        0.17517    0.25428    0.79554    1.000
    Si300    Si       0.07948    0.05567    0.84088    1.000
    N301     N        0.04137    0.05778    0.86256    1.000
    N302     N        0.08952    0.01352    0.83943    1.000
    Si303    Si       0.01168    0.12630    0.86304    1.000
    N304     N        0.11441    0.07419    0.85628    1.000
    Si305    Si       0.99357    0.05910    0.84853    1.000
    N306     N        0.98708    0.02413    0.87618    1.000
    N307     N        0.17760    0.05815    0.84803    1.000
    Si308    Si       0.14912    0.09074    0.83804    1.000
    Si309    Si       0.21824    0.06140    0.86173    1.000
    Si310    Si       0.16364    0.01722    0.86206    1.000
    N311     N        0.15802    0.12955    0.85538    1.000
    N312     N        0.23692    0.09978    0.85210    1.000
    N313     N        0.23917    0.03127    0.83730    1.000
    N314     N        0.08351    0.17818    0.85687    1.000
    N315     N        0.10589    0.23749    0.83275    1.000
    N316     N        0.02702    0.14540    0.82687    1.000
    Si317    Si       0.10927    0.21132    0.86733    1.000
    N318     N        0.03423    0.21607    0.82489    1.000
    Si319    Si       0.05432    0.17777    0.82369    1.000
    Si320    Si       0.06363    0.24962    0.82281    1.000
    N321     N        0.99173    0.23206    0.87347    1.000
    Si322    Si       0.99287    0.22664    0.83188    1.000
    Si323    Si       0.23617    0.18954    0.86195    1.000
    N324     N        0.15031    0.20172    0.86568    1.000
    Si325    Si       0.16503    0.16943    0.83838    1.000
    N326     N        0.20733    0.17437    0.83071    1.000
    N327     N        0.23930    0.25217    0.82854    1.000
    Si328    Si       0.04875    0.07890    0.89975    1.000
    N329     N        0.08773    0.07446    0.92040    1.000
    Si330    Si       0.00783    0.02534    0.91498    1.000
    N331     N        0.01773    0.06633    0.92586    1.000
    N332     N        0.04682    0.11952    0.88657    1.000
    Si333    Si       0.12320    0.06374    0.89962    1.000
    N334     N        0.13956    0.02379    0.90170    1.000
    N335     N        0.15488    0.09188    0.90873    1.000
    N336     N        0.22665    0.04626    0.90174    1.000
    Si337    Si       0.14840    0.13454    0.89736    1.000
    N338     N        0.10639    0.14270    0.91227    1.000
    Si339    Si       0.07222    0.15510    0.89167    1.000
    N340     N        0.10375    0.23336    0.90632    1.000
    N341     N        0.05085    0.18222    0.91922    1.000
    Si342    Si       0.06566    0.22334    0.92780    1.000
    N343     N        0.03539    0.25406    0.92303    1.000
    N344     N        0.17585    0.14906    0.92661    1.000
    Si345    Si       0.17735    0.23298    0.88243    1.000
    N346     N        0.22063    0.22459    0.88621    1.000
    N347     N        0.16922    0.23599    0.92433    1.000
    Si348    Si       0.09696    0.11141    0.94407    1.000
    N349     N        0.06491    0.12865    0.96728    1.000
    N350     N        0.99854    0.12950    0.94667    1.000
    Si351    Si       0.99136    0.08724    0.95536    1.000
    N352     N        0.13466    0.11000    0.96704    1.000
    N353     N        0.21099    0.09179    0.95479    1.000
    Si354    Si       0.17228    0.10878    0.94366    1.000
    Si355    Si       0.10913    0.23664    0.99007    1.000
    N356     N        0.02605    0.18345    0.98326    1.000
    Si357    Si       0.03450    0.15651    0.95218    1.000
    N358     N        0.07649    0.22075    0.96907    1.000
    N359     N        0.20280    0.24865    0.97987    1.000
    Si360    Si       0.21321    0.23354    0.93719    1.000
    N361     N        0.09512    0.30839    0.02182    1.000
    Si362    Si       0.06468    0.27770    0.03459    1.000
    Si363    Si       0.99782    0.37769    0.03241    1.000
    N364     N        0.04002    0.26893    0.99797    1.000
    N365     N        0.00009    0.34196    0.05539    1.000
    N366     N        0.11959    0.36911    0.02947    1.000
    Si367    Si       0.19584    0.31487    0.03117    1.000
    N368     N        0.20144    0.35761    0.03769    1.000
    Si369    Si       0.11978    0.32990    0.04988    1.000
    Si370    Si       0.22577    0.35881    0.00106    1.000
    N371     N        0.15632    0.30778    0.04805    1.000
    N372     N        0.06424    0.45888    0.03753    1.000
    N373     N        0.03824    0.39575    0.02471    1.000
    Si374    Si       0.05306    0.47491    0.99823    1.000
    Si375    Si       0.16863    0.44963    0.00868    1.000
    N376     N        0.17349    0.49492    0.03418    1.000
    N377     N        0.20722    0.43923    0.02801    1.000
    N378     N        0.14242    0.43721    0.04442    1.000
    N379     N        0.03547    0.27856    0.06457    1.000
    N380     N        0.10526    0.33339    0.09256    1.000
    Si381    Si       0.99454    0.30075    0.06787    1.000
    Si382    Si       0.08875    0.36791    0.11384    1.000
    N383     N        0.11911    0.26466    0.08208    1.000
    Si384    Si       0.19266    0.37137    0.07927    1.000
    Si385    Si       0.21298    0.30067    0.09869    1.000
    N386     N        0.21977    0.28842    0.05717    1.000
    Si387    Si       0.16090    0.26971    0.07007    1.000
    N388     N        0.19938    0.33980    0.10760    1.000
    N389     N        0.18307    0.26984    0.10821    1.000
    N390     N        0.02485    0.42928    0.08970    1.000
    N391     N        0.08693    0.39874    0.07911    1.000
    Si392    Si       0.07720    0.48668    0.06845    1.000
    N393     N        0.07507    0.46875    0.10771    1.000
    Si394    Si       0.05490    0.41956    0.05737    1.000
    N395     N        0.12298    0.49174    0.07699    1.000
    N396     N        0.15292    0.38316    0.08945    1.000
    Si397    Si       0.16259    0.46702    0.07214    1.000
    Si398    Si       0.22351    0.43762    0.06919    1.000
    N399     N        0.22357    0.40047    0.08951    1.000
    Si400    Si       0.12562    0.40033    0.05942    1.000
    N401     N        0.20227    0.46896    0.09028    1.000
    N402     N        0.01157    0.31237    0.15890    1.000
    Si403    Si       0.05262    0.32091    0.15089    1.000
    N404     N        0.05142    0.36194    0.13342    1.000
    N405     N        0.06521    0.28818    0.12558    1.000
    Si406    Si       0.10708    0.29264    0.11386    1.000
    Si407    Si       0.19155    0.34966    0.14927    1.000
    N408     N        0.12935    0.27601    0.14767    1.000
    N409     N        0.23098    0.34196    0.16683    1.000
    N410     N        0.11214    0.38642    0.14620    1.000
    Si411    Si       0.01955    0.38847    0.14835    1.000
    N412     N        0.03205    0.42955    0.15774    1.000
    Si413    Si       0.03683    0.45548    0.12291    1.000
    N414     N        0.01686    0.49214    0.11885    1.000
    N415     N        0.23455    0.46856    0.15383    1.000
    N416     N        0.12025    0.49046    0.15798    1.000
    N417     N        0.18069    0.39162    0.15526    1.000
    Si418    Si       0.11643    0.47262    0.11905    1.000
    Si419    Si       0.15020    0.40312    0.12901    1.000
    Si420    Si       0.22643    0.49211    0.11765    1.000
    N421     N        0.14677    0.44330    0.11194    1.000
    Si422    Si       0.07340    0.33727    0.21922    1.000
    N423     N        0.03320    0.32121    0.22629    1.000
    N424     N        0.01117    0.37054    0.18827    1.000
    Si425    Si       0.00016    0.32942    0.19937    1.000
    N426     N        0.08542    0.32076    0.18120    1.000
    N427     N        0.07218    0.37937    0.21208    1.000
    N428     N        0.01211    0.25986    0.20282    1.000
    Si429    Si       0.12781    0.30258    0.18259    1.000
    N430     N        0.13417    0.29068    0.22387    1.000
    N431     N        0.15808    0.32996    0.16889    1.000
    Si432    Si       0.02626    0.38503    0.22873    1.000
    N433     N        0.05649    0.48648    0.20622    1.000
    Si434    Si       0.05249    0.44392    0.19331    1.000
    N435     N        0.09641    0.43562    0.19081    1.000
    N436     N        0.02472    0.42942    0.22536    1.000
    Si437    Si       0.10701    0.39345    0.18912    1.000
    Si438    Si       0.01803    0.50430    0.21176    1.000
    Si439    Si       0.12926    0.46545    0.19267    1.000
    N440     N        0.17002    0.44919    0.19126    1.000
    N441     N        0.14252    0.39307    0.21749    1.000
    N442     N        0.22913    0.46669    0.22604    1.000
    N443     N        0.22008    0.39618    0.21336    1.000
    N444     N        0.12803    0.49305    0.22671    1.000
    Si445    Si       0.18034    0.40795    0.19588    1.000
    Si446    Si       0.20563    0.47446    0.18718    1.000
    N447     N        0.09356    0.33324    0.25696    1.000
    N448     N        0.00497    0.27242    0.26820    1.000
    Si449    Si       0.10518    0.29285    0.25856    1.000
    Si450    Si       0.08043    0.36365    0.28411    1.000
    N451     N        0.03904    0.37683    0.27482    1.000
    N452     N        0.07227    0.26460    0.24545    1.000
    Si453    Si       0.03195    0.27933    0.23723    1.000
    Si454    Si       0.20160    0.33614    0.26779    1.000
    N455     N        0.18602    0.29572    0.27363    1.000
    N456     N        0.16565    0.35952    0.27570    1.000
    Si457    Si       0.22750    0.27978    0.27291    1.000
    N458     N        0.23015    0.32579    0.23622    1.000
    N459     N        0.22742    0.36831    0.28532    1.000
    Si460    Si       0.17099    0.26815    0.23101    1.000
    N461     N        0.10572    0.39741    0.28356    1.000
    N462     N        0.01082    0.50308    0.25527    1.000
    N463     N        0.17171    0.42067    0.28166    1.000
    Si464    Si       0.14278    0.39409    0.26166    1.000
    Si465    Si       0.22949    0.49831    0.25838    1.000
    N466     N        0.08132    0.34567    0.32451    1.000
    Si467    Si       0.10815    0.31437    0.33637    1.000
    N468     N        0.99921    0.27720    0.33762    1.000
    N469     N        0.01390    0.35594    0.33426    1.000
    Si470    Si       0.05171    0.36937    0.34948    1.000
    Si471    Si       0.98983    0.32101    0.33464    1.000
    Si472    Si       0.99709    0.36999    0.29073    1.000
    N473     N        0.11639    0.28758    0.30130    1.000
    N474     N        0.21472    0.31187    0.33792    1.000
    Si475    Si       0.15711    0.27145    0.29695    1.000
    Si476    Si       0.21033    0.27010    0.34274    1.000
    N477     N        0.19323    0.37755    0.34591    1.000
    Si478    Si       0.10354    0.42024    0.32082    1.000
    N479     N        0.06490    0.40884    0.33678    1.000
    Si480    Si       0.09816    0.50123    0.29828    1.000
    N481     N        0.11238    0.46044    0.30423    1.000
    N482     N        0.05879    0.50643    0.31721    1.000
    Si483    Si       0.22815    0.46480    0.32882    1.000
    Si484    Si       0.19190    0.38686    0.30243    1.000
    N485     N        0.18722    0.47533    0.32152    1.000
    N486     N        0.14020    0.42224    0.34369    1.000
    Si487    Si       0.15542    0.44776    0.31077    1.000
    N488     N        0.08081    0.29407    0.36650    1.000
    N489     N        0.05687    0.36022    0.39109    1.000
    Si490    Si       0.06039    0.31722    0.39746    1.000
    N491     N        0.02039    0.29802    0.40283    1.000
    Si492    Si       0.00446    0.26220    0.38035    1.000
    Si493    Si       0.18565    0.33700    0.35777    1.000
    N494     N        0.19351    0.32739    0.40072    1.000
    N495     N        0.22554    0.26245    0.38327    1.000
    N496     N        0.23813    0.37961    0.40127    1.000
    N497     N        0.14655    0.32639    0.34535    1.000
    N498     N        0.16553    0.38550    0.40876    1.000
    N499     N        0.08397    0.50168    0.38863    1.000
    N500     N        0.02062    0.48521    0.37112    1.000
    N501     N        0.00017    0.41566    0.38389    1.000
    Si502    Si       0.02205    0.45123    0.39668    1.000
    N503     N        0.24157    0.48885    0.36402    1.000
    N504     N        0.20410    0.43627    0.38438    1.000
    Si505    Si       0.23038    0.40009    0.36280    1.000
    Si506    Si       0.23397    0.46254    0.39929    1.000
    Si507    Si       0.16219    0.42141    0.38130    1.000
    N508     N        0.07874    0.31030    0.43677    1.000
    Si509    Si       0.08652    0.26756    0.44669    1.000
    Si510    Si       0.09761    0.34210    0.46019    1.000
    N511     N        0.09392    0.38202    0.44010    1.000
    N512     N        0.17603    0.27238    0.43258    1.000
    Si513    Si       0.20186    0.36425    0.42209    1.000
    Si514    Si       0.21168    0.29107    0.41553    1.000
    N515     N        0.20868    0.36158    0.46629    1.000
    N516     N        0.14145    0.33679    0.46413    1.000
    N517     N        0.24124    0.30406    0.44430    1.000
    Si518    Si       0.15693    0.29516    0.46624    1.000
    N519     N        0.99953    0.46881    0.43006    1.000
    Si520    Si       0.05667    0.39349    0.42035    1.000
    N521     N        0.09753    0.48755    0.44920    1.000
    N522     N        0.01936    0.39644    0.44792    1.000
    Si523    Si       0.09413    0.46399    0.41355    1.000
    N524     N        0.06282    0.43532    0.40717    1.000
    N525     N        0.23796    0.49038    0.43450    1.000
    N526     N        0.23673    0.42452    0.45350    1.000
    Si527    Si       0.13276    0.40200    0.43298    1.000
    N528     N        0.13123    0.43977    0.40962    1.000
    N529     N        0.08408    0.34633    0.50337    1.000
    Si530    Si       0.01892    0.27420    0.49220    1.000
    N531     N        0.02854    0.30659    0.52008    1.000
    N532     N        0.98791    0.36499    0.50764    1.000
    N533     N        0.12328    0.26792    0.47225    1.000
    Si534    Si       0.22904    0.32520    0.48639    1.000
    N535     N        0.19054    0.30254    0.49257    1.000
    Si536    Si       0.16879    0.36529    0.48499    1.000
    N537     N        0.16730    0.35380    0.52596    1.000
    Si538    Si       0.07461    0.38587    0.52010    1.000
    N539     N        0.03940    0.41116    0.51649    1.000
    Si540    Si       0.10178    0.49236    0.49070    1.000
    Si541    Si       0.00584    0.40203    0.49089    1.000
    N542     N        0.07084    0.47925    0.51984    1.000
    N543     N        0.21388    0.47466    0.50079    1.000
    Si544    Si       0.14563    0.43019    0.50547    1.000
    N545     N        0.13999    0.47195    0.50061    1.000
    N546     N        0.15221    0.40407    0.47168    1.000
    Si547    Si       0.17592    0.49741    0.49913    1.000
    N548     N        0.05639    0.36503    0.55408    1.000
    Si549    Si       0.06453    0.32415    0.53528    1.000
    N550     N        0.08401    0.31408    0.57395    1.000
    N551     N        0.99949    0.32339    0.57834    1.000
    Si552    Si       0.99314    0.32888    0.53447    1.000
    N553     N        0.19907    0.29722    0.56198    1.000
    N554     N        0.13572    0.28546    0.53720    1.000
    Si555    Si       0.12709    0.30513    0.57486    1.000
    Si556    Si       0.17280    0.31063    0.53049    1.000
    N557     N        0.21065    0.36987    0.58190    1.000
    N558     N        0.99394    0.41634    0.56813    1.000
    Si559    Si       0.09106    0.45016    0.54512    1.000
    Si560    Si       0.03357    0.40346    0.56312    1.000
    N561     N        0.06595    0.42904    0.57537    1.000
    Si562    Si       0.03931    0.50636    0.53631    1.000
    N563     N        0.02768    0.49655    0.57872    1.000
    N564     N        0.10665    0.41467    0.52135    1.000
    N565     N        0.17985    0.42191    0.52904    1.000
    Si566    Si       0.17897    0.38491    0.55435    1.000
    N567     N        0.12229    0.46768    0.56720    1.000
    N568     N        0.22634    0.43662    0.57257    1.000
    Si569    Si       0.15214    0.50026    0.56969    1.000
    Si570    Si       0.21592    0.44219    0.53181    1.000
    Si571    Si       0.06253    0.35151    0.59679    1.000
    Si572    Si       0.08225    0.28660    0.61634    1.000
    N573     N        0.05764    0.32211    0.62950    1.000
    N574     N        0.09484    0.37867    0.61207    1.000
    N575     N        0.02765    0.37741    0.60980    1.000
    Si576    Si       0.99012    0.35508    0.60405    1.000
    N577     N        0.05594    0.25825    0.59935    1.000
    N578     N        0.20341    0.31287    0.62967    1.000
    N579     N        0.12568    0.27273    0.60447    1.000
    Si580    Si       0.13864    0.36934    0.61174    1.000
    Si581    Si       0.19753    0.32891    0.58961    1.000
    N582     N        0.15228    0.33531    0.58866    1.000
    Si583    Si       0.08182    0.42013    0.61609    1.000
    N584     N        0.05138    0.42766    0.64664    1.000
    Si585    Si       0.24153    0.39836    0.58605    1.000
    N586     N        0.23139    0.46811    0.64116    1.000
    Si587    Si       0.14420    0.44439    0.59638    1.000
    N588     N        0.11678    0.43961    0.62983    1.000
    Si589    Si       0.22183    0.47043    0.59837    1.000
    N590     N        0.17740    0.47598    0.59983    1.000
    Si591    Si       0.17294    0.50753    0.62854    1.000
    N592     N        0.15339    0.40262    0.58722    1.000
    N593     N        0.03316    0.36274    0.67940    1.000
    N594     N        0.02917    0.28682    0.68352    1.000
    Si595    Si       0.02716    0.32354    0.66048    1.000
    N596     N        0.09256    0.27055    0.65700    1.000
    N597     N        0.15223    0.29928    0.67416    1.000
    Si598    Si       0.17961    0.33000    0.66165    1.000
    N599     N        0.21976    0.26873    0.68319    1.000
    Si600    Si       0.13462    0.26977    0.64744    1.000
    N601     N        0.19806    0.34667    0.69594    1.000
    N602     N        0.15979    0.36667    0.64795    1.000
    Si603    Si       0.22984    0.28154    0.64305    1.000
    Si604    Si       0.02506    0.39577    0.65180    1.000
    N605     N        0.03949    0.49180    0.69164    1.000
    Si606    Si       0.05390    0.45200    0.68347    1.000
    N607     N        0.09592    0.45277    0.69576    1.000
    Si608    Si       0.99868    0.50466    0.68555    1.000
    N609     N        0.22216    0.50131    0.70060    1.000
    Si610    Si       0.17853    0.38906    0.68465    1.000
    N611     N        0.14523    0.41582    0.69053    1.000
    Si612    Si       0.23573    0.50656    0.65990    1.000
    N613     N        0.21345    0.41131    0.67706    1.000
    Si614    Si       0.13115    0.45147    0.67011    1.000
    N615     N        0.14771    0.49113    0.66280    1.000
    N616     N        0.00974    0.36699    0.74611    1.000
    Si617    Si       0.09975    0.35803    0.75165    1.000
    N618     N        0.11099    0.28210    0.73003    1.000
    N619     N        0.99965    0.26142    0.74550    1.000
    Si620    Si       0.99473    0.27358    0.70624    1.000
    N621     N        0.06412    0.32962    0.75776    1.000
    N622     N        0.13703    0.34857    0.73237    1.000
    Si623    Si       0.18303    0.34898    0.74013    1.000
    Si624    Si       0.14249    0.30800    0.71523    1.000
    Si625    Si       0.22018    0.29372    0.72276    1.000
    N626     N        0.17879    0.30331    0.73747    1.000
    N627     N        0.22460    0.34764    0.75899    1.000
    N628     N        0.22987    0.27037    0.75964    1.000
    Si629    Si       0.04055    0.38258    0.71681    1.000
    Si630    Si       0.06461    0.50877    0.72466    1.000
    N631     N        0.08308    0.38898    0.72748    1.000
    Si632    Si       0.99665    0.44259    0.73169    1.000
    N633     N        0.07762    0.48236    0.75542    1.000
    N634     N        0.03077    0.42533    0.70969    1.000
    Si635    Si       0.11231    0.41957    0.71870    1.000
    Si636    Si       0.18725    0.50993    0.72897    1.000
    N637     N        0.22814    0.44866    0.74371    1.000
    Si638    Si       0.22664    0.41135    0.71989    1.000
    N639     N        0.18766    0.39542    0.73396    1.000
    N640     N        0.12989    0.43005    0.75845    1.000
    N641     N        0.14600    0.49135    0.73309    1.000
    Si642    Si       0.03401    0.35109    0.78035    1.000
    N643     N        0.01852    0.32552    0.81164    1.000
    N644     N        0.10808    0.36445    0.79385    1.000
    Si645    Si       0.10894    0.32791    0.81869    1.000
    N646     N        0.11265    0.29224    0.79389    1.000
    N647     N        0.05676    0.25921    0.78065    1.000
    Si648    Si       0.08436    0.29058    0.76302    1.000
    Si649    Si       0.21141    0.35483    0.80048    1.000
    N650     N        0.17305    0.37168    0.79210    1.000
    Si651    Si       0.21263    0.27475    0.80055    1.000
    N652     N        0.21739    0.31474    0.81630    1.000
    N653     N        0.04446    0.38939    0.80105    1.000
    N654     N        0.01623    0.44565    0.76996    1.000
    N655     N        0.08386    0.44249    0.80781    1.000
    Si656    Si       0.01048    0.41578    0.80159    1.000
    Si657    Si       0.05290    0.46526    0.78574    1.000
    N658     N        0.03263    0.49744    0.80741    1.000
    Si659    Si       0.08575    0.39944    0.80870    1.000
    N660     N        0.20208    0.50960    0.76774    1.000
    N661     N        0.12522    0.48822    0.80437    1.000
    Si662    Si       0.16735    0.40996    0.76950    1.000
    N663     N        0.18707    0.43790    0.79585    1.000
    Si664    Si       0.21525    0.46945    0.78064    1.000
    Si665    Si       0.11964    0.47192    0.76343    1.000
    N666     N        0.04898    0.27639    0.85338    1.000
    N667     N        0.07683    0.34006    0.84331    1.000
    Si668    Si       0.03964    0.31991    0.85235    1.000
    Si669    Si       0.08124    0.37351    0.87186    1.000
    N670     N        0.99532    0.30420    0.86973    1.000
    N671     N        0.14536    0.33116    0.84131    1.000
    N672     N        0.18400    0.27288    0.86667    1.000
    Si673    Si       0.14733    0.37413    0.82894    1.000
    Si674    Si       0.22500    0.26575    0.86864    1.000
    Si675    Si       0.16508    0.31213    0.87533    1.000
    Si676    Si       0.01485    0.41052    0.86947    1.000
    N677     N        0.01062    0.44088    0.83821    1.000
    N678     N        0.09066    0.47997    0.86450    1.000
    Si679    Si       0.99825    0.48243    0.83345    1.000
    N680     N        0.00122    0.50544    0.87020    1.000
    N681     N        0.05740    0.41154    0.87999    1.000
    N682     N        0.11137    0.39656    0.84606    1.000
    Si683    Si       0.11440    0.45808    0.83370    1.000
    N684     N        0.20087    0.50010    0.83468    1.000
    N685     N        0.15037    0.44909    0.85661    1.000
    Si686    Si       0.19136    0.50449    0.87780    1.000
    N687     N        0.18052    0.39222    0.85228    1.000
    Si688    Si       0.18783    0.43377    0.83911    1.000
    N689     N        0.22667    0.43907    0.85562    1.000
    N690     N        0.09874    0.35868    0.90988    1.000
    N691     N        0.03622    0.34502    0.89149    1.000
    Si692    Si       0.01824    0.26566    0.88303    1.000
    Si693    Si       0.06124    0.34763    0.92884    1.000
    Si694    Si       0.99360    0.34527    0.88869    1.000
    N695     N        0.23841    0.27117    0.93246    1.000
    N696     N        0.13577    0.29783    0.90756    1.000
    N697     N        0.17593    0.34385    0.90207    1.000
    Si698    Si       0.13448    0.34016    0.92200    1.000
    Si699    Si       0.13249    0.26107    0.92618    1.000
    Si700    Si       0.19210    0.38256    0.89223    1.000
    N701     N        0.23554    0.38223    0.89556    1.000
    Si702    Si       0.07526    0.45162    0.89205    1.000
    Si703    Si       0.00750    0.47743    0.90349    1.000
    N704     N        0.04898    0.47816    0.91407    1.000
    N705     N        0.99710    0.43570    0.90006    1.000
    N706     N        0.11155    0.44500    0.91792    1.000
    Si707    Si       0.06573    0.51022    0.93941    1.000
    N708     N        0.17744    0.41506    0.91761    1.000
    Si709    Si       0.15020    0.44372    0.89983    1.000
    N710     N        0.17063    0.48271    0.90846    1.000
    N711     N        0.23568    0.50159    0.88703    1.000
    Si712    Si       0.03842    0.28111    0.95690    1.000
    N713     N        0.07011    0.31070    0.95203    1.000
    N714     N        0.03761    0.36900    0.95692    1.000
    N715     N        0.00346    0.30669    0.95625    1.000
    Si716    Si       0.10562    0.30906    0.97872    1.000
    Si717    Si       0.99891    0.34957    0.96131    1.000
    N718     N        0.12276    0.27092    0.96806    1.000
    N719     N        0.12878    0.34559    0.96624    1.000
    Si720    Si       0.23206    0.28050    0.97413    1.000
    N721     N        0.21322    0.31693    0.99146    1.000
    Si722    Si       0.12615    0.38490    0.98860    1.000
    N723     N        0.22250    0.38468    0.96567    1.000
    N724     N        0.03027    0.44400    0.97664    1.000
    N725     N        0.08555    0.48475    0.97034    1.000
    N726     N        0.09129    0.41185    0.97855    1.000
    Si727    Si       0.04885    0.40482    0.98377    1.000
    Si728    Si       0.11005    0.44844    0.96255    1.000
    Si729    Si       0.12026    0.50803    0.98281    1.000
    N730     N        0.21164    0.45720    0.96061    1.000
    Si731    Si       0.18020    0.48608    0.95004    1.000
    N732     N        0.14710    0.47256    0.97491    1.000
    Si733    Si       0.19318    0.41591    0.95722    1.000
    N734     N        0.15827    0.41253    0.98291    1.000
    Si735    Si       0.03884    0.53736    0.03243    1.000
    Si736    Si       0.03518    0.60839    0.02349    1.000
    N737     N        0.06124    0.57470    0.02293    1.000
    N738     N        0.99822    0.55601    0.04044    1.000
    Si739    Si       0.10132    0.57032    0.00889    1.000
    N740     N        0.11008    0.52811    0.01909    1.000
    N741     N        0.03021    0.51204    0.99796    1.000
    N742     N        0.12810    0.59549    0.03406    1.000
    N743     N        0.18717    0.55810    0.01595    1.000
    Si744    Si       0.20876    0.52370    0.03112    1.000
    Si745    Si       0.16945    0.58674    0.04563    1.000
    Si746    Si       0.13990    0.52290    0.04956    1.000
    N747     N        0.17704    0.63280    0.02616    1.000
    Si748    Si       0.03817    0.73970    0.02820    1.000
    N749     N        0.01319    0.70711    0.03723    1.000
    N750     N        0.06533    0.74347    0.05902    1.000
    N751     N        0.23503    0.73999    0.00792    1.000
    N752     N        0.12253    0.66889    0.01650    1.000
    Si753    Si       0.19479    0.74882    0.01995    1.000
    N754     N        0.17434    0.71081    0.02384    1.000
    Si755    Si       0.13342    0.63948    0.04444    1.000
    N756     N        0.22823    0.68912    0.05583    1.000
    Si757    Si       0.12995    0.71597    0.02159    1.000
    Si758    Si       0.19019    0.67325    0.03764    1.000
    N759     N        0.05287    0.52094    0.06859    1.000
    N760     N        0.03161    0.62199    0.06423    1.000
    Si761    Si       0.99489    0.62217    0.08665    1.000
    Si762    Si       0.03769    0.52855    0.10934    1.000
    N763     N        0.00602    0.55620    0.11121    1.000
    N764     N        0.19633    0.59783    0.08083    1.000
    N765     N        0.15950    0.55103    0.07307    1.000
    Si766    Si       0.19724    0.55469    0.09560    1.000
    N767     N        0.22448    0.53626    0.06723    1.000
    N768     N        0.05128    0.68260    0.08865    1.000
    Si769    Si       0.08159    0.71461    0.08734    1.000
    Si770    Si       0.06287    0.64177    0.08758    1.000
    Si771    Si       0.00998    0.69503    0.07789    1.000
    N772     N        0.10560    0.64327    0.07702    1.000
    N773     N        0.99138    0.72858    0.09796    1.000
    N774     N        0.23018    0.64055    0.11422    1.000
    N775     N        0.12146    0.71284    0.07149    1.000
    Si776    Si       0.21790    0.72747    0.08071    1.000
    N777     N        0.18852    0.72204    0.11389    1.000
    Si778    Si       0.18733    0.63581    0.10408    1.000
    Si779    Si       0.15327    0.70119    0.10031    1.000
    N780     N        0.16984    0.66598    0.07879    1.000
    N781     N        0.06770    0.53838    0.14004    1.000
    Si782    Si       0.10659    0.53168    0.15925    1.000
    N783     N        0.00702    0.62302    0.12870    1.000
    Si784    Si       0.98812    0.55055    0.15237    1.000
    N785     N        0.19956    0.52447    0.12742    1.000
    N786     N        0.14025    0.55562    0.15187    1.000
    Si787    Si       0.18129    0.53887    0.16340    1.000
    Si788    Si       0.15458    0.59506    0.16091    1.000
    N789     N        0.15256    0.62293    0.12963    1.000
    N790     N        0.19573    0.57907    0.17099    1.000
    N791     N        0.07604    0.63041    0.12810    1.000
    Si792    Si       0.04149    0.63478    0.15536    1.000
    N793     N        0.07844    0.73626    0.12370    1.000
    Si794    Si       0.05436    0.71714    0.15465    1.000
    N795     N        0.02485    0.74753    0.15574    1.000
    N796     N        0.03739    0.67837    0.16600    1.000
    Si797    Si       0.19365    0.73862    0.15341    1.000
    N798     N        0.12669    0.68583    0.13326    1.000
    Si799    Si       0.11615    0.64679    0.12037    1.000
    N800     N        0.15325    0.73902    0.16913    1.000
    Si801    Si       0.12446    0.70794    0.17238    1.000
    N802     N        0.09093    0.54496    0.19724    1.000
    Si803    Si       0.06268    0.61866    0.22101    1.000
    N804     N        0.05327    0.60297    0.18233    1.000
    N805     N        0.01515    0.53958    0.18399    1.000
    Si806    Si       0.08772    0.51040    0.22416    1.000
    Si807    Si       0.05396    0.55929    0.17677    1.000
    Si808    Si       0.11409    0.57713    0.21515    1.000
    Si809    Si       0.21885    0.60295    0.19600    1.000
    N810     N        0.13020    0.60981    0.19397    1.000
    N811     N        0.18644    0.51363    0.19563    1.000
    Si812    Si       0.16145    0.51924    0.23177    1.000
    N813     N        0.08680    0.65520    0.22106    1.000
    Si814    Si       0.99934    0.68431    0.18614    1.000
    N815     N        0.08399    0.71699    0.18987    1.000
    Si816    Si       0.06226    0.68982    0.22075    1.000
    N817     N        0.01881    0.69916    0.22412    1.000
    Si818    Si       0.08455    0.74587    0.22357    1.000
    N819     N        0.20744    0.64387    0.19123    1.000
    Si820    Si       0.19143    0.68041    0.20211    1.000
    N821     N        0.14833    0.68070    0.19948    1.000
    N822     N        0.21324    0.71030    0.17788    1.000
    Si823    Si       0.12963    0.64723    0.21818    1.000
    Si824    Si       0.07694    0.56487    0.27802    1.000
    N825     N        0.08651    0.52646    0.26442    1.000
    Si826    Si       0.01543    0.60073    0.27820    1.000
    N827     N        0.08674    0.59274    0.24493    1.000
    N828     N        0.03429    0.56341    0.28398    1.000
    N829     N        0.02973    0.62922    0.24773    1.000
    Si830    Si       0.16831    0.59402    0.25554    1.000
    N831     N        0.18927    0.51089    0.26500    1.000
    N832     N        0.21090    0.59192    0.23938    1.000
    N833     N        0.14788    0.56072    0.23588    1.000
    Si834    Si       0.99382    0.70325    0.25977    1.000
    N835     N        0.07857    0.71505    0.25337    1.000
    Si836    Si       0.09948    0.68971    0.28384    1.000
    Si837    Si       0.24126    0.69773    0.25751    1.000
    Si838    Si       0.17466    0.66811    0.27659    1.000
    N839     N        0.14127    0.69368    0.28501    1.000
    N840     N        0.15502    0.63413    0.25256    1.000
    N841     N        0.20025    0.68800    0.24534    1.000
    N842     N        0.23888    0.73673    0.27533    1.000
    N843     N        0.09338    0.58722    0.31218    1.000
    N844     N        0.02148    0.61903    0.31619    1.000
    Si845    Si       0.06583    0.61995    0.32295    1.000
    Si846    Si       0.02454    0.51955    0.29448    1.000
    Si847    Si       0.13228    0.56854    0.32092    1.000
    Si848    Si       0.20494    0.58213    0.31909    1.000
    N849     N        0.20229    0.53987    0.32988    1.000
    N850     N        0.13233    0.52468    0.31358    1.000
    Si851    Si       0.17601    0.51432    0.30685    1.000
    N852     N        0.16660    0.58422    0.29736    1.000
    N853     N        0.23802    0.59412    0.29630    1.000
    Si854    Si       0.99226    0.63553    0.34431    1.000
    Si855    Si       0.01015    0.71138    0.33702    1.000
    N856     N        0.09411    0.71938    0.31406    1.000
    N857     N        0.07994    0.65537    0.30025    1.000
    N858     N        0.04177    0.74064    0.34243    1.000
    Si859    Si       0.05591    0.73379    0.29496    1.000
    N860     N        0.01973    0.70806    0.29430    1.000
    Si861    Si       0.19026    0.67723    0.34933    1.000
    Si862    Si       0.14071    0.72731    0.31564    1.000
    N863     N        0.20045    0.65787    0.31048    1.000
    N864     N        0.17903    0.71733    0.33390    1.000
    N865     N        0.03740    0.55110    0.36558    1.000
    Si866    Si       0.03049    0.59106    0.38204    1.000
    N867     N        0.06209    0.61889    0.36638    1.000
    N868     N        0.99065    0.60746    0.37817    1.000
    Si869    Si       0.05382    0.51270    0.36087    1.000
    N870     N        0.11282    0.62870    0.40804    1.000
    Si871    Si       0.12513    0.58733    0.40151    1.000
    N872     N        0.14275    0.57514    0.36282    1.000
    N873     N        0.20094    0.53817    0.39529    1.000
    Si874    Si       0.18137    0.57798    0.38062    1.000
    Si875    Si       0.22949    0.52963    0.36424    1.000
    N876     N        0.20665    0.60344    0.35728    1.000
    Si877    Si       0.08354    0.72358    0.35690    1.000
    Si878    Si       0.07734    0.64737    0.39434    1.000
    N879     N        0.08458    0.68383    0.37159    1.000
    N880     N        0.01207    0.67093    0.35822    1.000
    N881     N        0.07248    0.74703    0.39600    1.000
    Si882    Si       0.01618    0.67739    0.40269    1.000
    N883     N        0.01277    0.72042    0.40475    1.000
    Si884    Si       0.03027    0.75742    0.38792    1.000
    N885     N        0.15960    0.67371    0.38108    1.000
    N886     N        0.12571    0.74006    0.36133    1.000
    N887     N        0.18625    0.73236    0.40118    1.000
    N888     N        0.22775    0.68327    0.36899    1.000
    Si889    Si       0.14717    0.71435    0.39162    1.000
    Si890    Si       0.19408    0.74866    0.35965    1.000
    N891     N        0.23411    0.75762    0.34842    1.000
    N892     N        0.04074    0.52995    0.43296    1.000
    N893     N        0.03882    0.59528    0.42478    1.000
    Si894    Si       0.08421    0.52450    0.42670    1.000
    Si895    Si       0.02176    0.56460    0.45486    1.000
    Si896    Si       0.00346    0.51244    0.41846    1.000
    Si897    Si       0.02367    0.63056    0.44485    1.000
    N898     N        0.11488    0.55476    0.42871    1.000
    Si899    Si       0.20886    0.52645    0.43710    1.000
    Si900    Si       0.19057    0.59635    0.45529    1.000
    N901     N        0.21990    0.56534    0.45373    1.000
    N902     N        0.16947    0.60192    0.41516    1.000
    N903     N        0.17299    0.51810    0.46087    1.000
    Si904    Si       0.13981    0.54685    0.46300    1.000
    N905     N        0.20888    0.63329    0.46727    1.000
    N906     N        0.98965    0.65378    0.42658    1.000
    N907     N        0.05251    0.66404    0.42669    1.000
    Si908    Si       0.01328    0.73686    0.44511    1.000
    Si909    Si       0.10212    0.75993    0.42506    1.000
    Si910    Si       0.20998    0.75225    0.43245    1.000
    Si911    Si       0.15271    0.64561    0.41490    1.000
    Si912    Si       0.13416    0.70078    0.46500    1.000
    N913     N        0.15305    0.66266    0.45308    1.000
    N914     N        0.12708    0.72355    0.42976    1.000
    N915     N        0.04794    0.57348    0.49033    1.000
    Si916    Si       0.02400    0.60887    0.50323    1.000
    Si917    Si       0.08405    0.56317    0.51370    1.000
    N918     N        0.99552    0.60211    0.46880    1.000
    N919     N        0.10737    0.53522    0.49192    1.000
    N920     N        0.00379    0.51099    0.51362    1.000
    N921     N        0.15811    0.58263    0.47915    1.000
    Si922    Si       0.15199    0.60172    0.51721    1.000
    N923     N        0.04226    0.64356    0.48521    1.000
    N924     N        0.09906    0.69110    0.49050    1.000
    Si925    Si       0.03105    0.73159    0.51182    1.000
    Si926    Si       0.10318    0.72171    0.52281    1.000
    N927     N        0.03982    0.71424    0.47045    1.000
    Si928    Si       0.06297    0.67903    0.46768    1.000
    N929     N        0.12593    0.75189    0.50038    1.000
    Si930    Si       0.18536    0.66507    0.48675    1.000
    N931     N        0.22786    0.68311    0.50700    1.000
    N932     N        0.15734    0.64495    0.51656    1.000
    N933     N        0.17257    0.70943    0.48393    1.000
    Si934    Si       0.16864    0.75017    0.49402    1.000
    Si935    Si       0.09659    0.61257    0.57058    1.000
    N936     N        0.06649    0.54083    0.54799    1.000
    N937     N        0.00566    0.61144    0.54191    1.000
    N938     N        0.11033    0.59315    0.53284    1.000
    Si939    Si       0.01706    0.59876    0.58153    1.000
    N940     N        0.06017    0.59704    0.58154    1.000
    N941     N        0.23259    0.56865    0.57663    1.000
    N942     N        0.18520    0.58866    0.53873    1.000
    Si943    Si       0.20620    0.60663    0.57242    1.000
    N944     N        0.17652    0.51932    0.53844    1.000
    Si945    Si       0.20703    0.55127    0.54093    1.000
    N946     N        0.06643    0.73918    0.53648    1.000
    N947     N        0.00663    0.70915    0.53919    1.000
    N948     N        0.09809    0.65570    0.56960    1.000
    Si949    Si       0.06507    0.75809    0.57857    1.000
    Si950    Si       0.01137    0.71691    0.58244    1.000
    Si951    Si       0.24057    0.68212    0.54772    1.000
    N952     N        0.22172    0.70507    0.58023    1.000
    Si953    Si       0.13984    0.66413    0.55265    1.000
    N954     N        0.13358    0.70739    0.54995    1.000
    N955     N        0.22915    0.64315    0.56832    1.000
    N956     N        0.08341    0.54432    0.62123    1.000
    Si957    Si       0.99732    0.51719    0.59978    1.000
    N958     N        0.01183    0.55707    0.59499    1.000
    N959     N        0.99473    0.62089    0.60981    1.000
    Si960    Si       0.05745    0.55054    0.58802    1.000
    Si961    Si       0.12414    0.56201    0.61814    1.000
    N962     N        0.18878    0.59526    0.61237    1.000
    N963     N        0.14594    0.52937    0.60243    1.000
    N964     N        0.12380    0.60107    0.59964    1.000
    Si965    Si       0.15443    0.62486    0.61645    1.000
    Si966    Si       0.22101    0.56679    0.62011    1.000
    N967     N        0.20897    0.52965    0.63732    1.000
    N968     N        0.08538    0.72268    0.59751    1.000
    N969     N        0.03176    0.68311    0.60323    1.000
    Si970    Si       0.00981    0.65646    0.62915    1.000
    Si971    Si       0.07672    0.67875    0.60156    1.000
    N972     N        0.09737    0.66426    0.63900    1.000
    N973     N        0.16739    0.65239    0.58430    1.000
    Si974    Si       0.12876    0.72301    0.58920    1.000
    N975     N        0.20250    0.76148    0.62275    1.000
    Si976    Si       0.20587    0.66801    0.59960    1.000
    N977     N        0.14486    0.70650    0.62344    1.000
    Si978    Si       0.23583    0.74415    0.59827    1.000
    N979     N        0.22488    0.65077    0.63458    1.000
    Si980    Si       0.02162    0.60549    0.68212    1.000
    N981     N        0.05041    0.57794    0.66838    1.000
    Si982    Si       0.08524    0.55437    0.66388    1.000
    N983     N        0.98919    0.54415    0.70199    1.000
    N984     N        0.12876    0.56864    0.66066    1.000
    N985     N        0.19517    0.59881    0.68397    1.000
    Si986    Si       0.15683    0.58165    0.69102    1.000
    Si987    Si       0.13480    0.51643    0.69767    1.000
    N988     N        0.03425    0.64208    0.66171    1.000
    N989     N        0.06404    0.70617    0.67803    1.000
    N990     N        0.00542    0.73511    0.65696    1.000
    Si991    Si       0.06850    0.66426    0.67302    1.000
    Si992    Si       0.04415    0.74437    0.67629    1.000
    Si993    Si       0.20035    0.63926    0.66951    1.000
    Si994    Si       0.16533    0.74175    0.64138    1.000
    N995     N        0.16207    0.64856    0.65236    1.000
    N996     N        0.13748    0.69164    0.69686    1.000
    Si997    Si       0.23194    0.73259    0.66200    1.000
    Si998    Si       0.13523    0.68094    0.65591    1.000
    N999     N        0.19131    0.71848    0.66822    1.000
    N1000    N        0.02948    0.60244    0.72499    1.000
    Si1001   Si       0.00915    0.56413    0.73658    1.000
    N1002    N        0.04018    0.53672    0.74974    1.000
    Si1003   Si       0.06048    0.62662    0.74243    1.000
    N1004    N        0.09384    0.52911    0.69878    1.000
    N1005    N        0.14736    0.61287    0.72232    1.000
    N1006    N        0.22256    0.59907    0.74177    1.000
    Si1007   Si       0.18822    0.62323    0.73638    1.000
    N1008    N        0.16788    0.54387    0.70874    1.000
    Si1009   Si       0.12957    0.62951    0.76025    1.000
    N1010    N        0.02138    0.75298    0.71444    1.000
    Si1011   Si       0.10115    0.75664    0.75859    1.000
    Si1012   Si       0.03944    0.73680    0.75012    1.000
    N1013    N        0.07904    0.71972    0.74149    1.000
    Si1014   Si       0.10309    0.68752    0.72467    1.000
    N1015    N        0.08063    0.65159    0.71348    1.000
    N1016    N        0.19721    0.65944    0.71269    1.000
    N1017    N        0.19217    0.73350    0.73149    1.000
    Si1018   Si       0.17941    0.70060    0.70687    1.000
    N1019    N        0.11990    0.67250    0.76167    1.000
    Si1020   Si       0.04703    0.53325    0.79211    1.000
    N1021    N        0.08515    0.54540    0.80912    1.000
    N1022    N        0.02843    0.56963    0.80725    1.000
    N1023    N        0.09312    0.61424    0.77363    1.000
    Si1024   Si       0.19696    0.53089    0.80517    1.000
    N1025    N        0.21192    0.57286    0.80895    1.000
    N1026    N        0.15816    0.54932    0.79720    1.000
    Si1027   Si       0.17239    0.58846    0.80709    1.000
    N1028    N        0.16933    0.62212    0.78024    1.000
    Si1029   Si       0.12552    0.52985    0.81622    1.000
    Si1030   Si       0.07304    0.64061    0.80561    1.000
    Si1031   Si       0.01228    0.67650    0.78677    1.000
    N1032    N        0.01860    0.72079    0.78385    1.000
    N1033    N        0.04355    0.65092    0.77407    1.000
    Si1034   Si       0.99451    0.74324    0.81371    1.000
    N1035    N        0.08230    0.68105    0.81807    1.000
    N1036    N        0.12394    0.73809    0.79068    1.000
    N1037    N        0.20853    0.69077    0.78370    1.000
    Si1038   Si       0.11970    0.69524    0.80204    1.000
    N1039    N        0.18611    0.74138    0.82039    1.000
    Si1040   Si       0.20031    0.73483    0.77456    1.000
    N1041    N        0.06986    0.61517    0.84111    1.000
    Si1042   Si       0.06351    0.57407    0.83327    1.000
    N1043    N        0.06079    0.55334    0.87104    1.000
    Si1044   Si       0.09361    0.52376    0.87494    1.000
    N1045    N        0.13089    0.53897    0.85861    1.000
    N1046    N        0.15554    0.60138    0.84595    1.000
    Si1047   Si       0.15569    0.56988    0.87697    1.000
    Si1048   Si       0.04989    0.69223    0.84874    1.000
    N1049    N        0.04122    0.73227    0.86435    1.000
    N1050    N        0.01490    0.67115    0.82833    1.000
    N1051    N        0.11516    0.74928    0.87861    1.000
    Si1052   Si       0.15094    0.64340    0.85481    1.000
    N1053    N        0.15137    0.67579    0.82625    1.000
    N1054    N        0.21344    0.68210    0.84966    1.000
    Si1055   Si       0.18724    0.69693    0.82190    1.000
    Si1056   Si       0.03913    0.56995    0.90564    1.000
    N1057    N        0.09869    0.52991    0.91899    1.000
    N1058    N        0.06272    0.60596    0.91469    1.000
    N1059    N        0.00021    0.58003    0.88574    1.000
    Si1060   Si       0.07847    0.63232    0.88162    1.000
    N1061    N        0.03449    0.54156    0.93921    1.000
    Si1062   Si       0.11552    0.56514    0.93753    1.000
    N1063    N        0.13963    0.58873    0.91252    1.000
    Si1064   Si       0.22823    0.53265    0.92058    1.000
    N1065    N        0.19073    0.54620    0.88917    1.000
    N1066    N        0.06850    0.72359    0.92577    1.000
    Si1067   Si       0.05354    0.67976    0.92578    1.000
    Si1068   Si       0.07452    0.74738    0.88989    1.000
    N1069    N        0.05681    0.66860    0.88467    1.000
    Si1070   Si       0.00211    0.73720    0.88371    1.000
    Si1071   Si       0.14710    0.63261    0.91676    1.000
    Si1072   Si       0.24086    0.72384    0.92868    1.000
    Si1073   Si       0.21939    0.65950    0.88436    1.000
    N1074    N        0.18118    0.64232    0.89130    1.000
    N1075    N        0.22179    0.68574    0.91999    1.000
    N1076    N        0.11967    0.64572    0.88434    1.000
    N1077    N        0.09607    0.58848    0.96902    1.000
    Si1078   Si       0.00358    0.52654    0.96457    1.000
    Si1079   Si       0.07133    0.62214    0.95632    1.000
    N1080    N        0.99840    0.60836    0.99762    1.000
    N1081    N        0.04849    0.63636    0.99190    1.000
    N1082    N        0.20064    0.59629    0.96574    1.000
    Si1083   Si       0.18125    0.55760    0.97364    1.000
    N1084    N        0.20014    0.52454    0.95329    1.000
    N1085    N        0.14096    0.54412    0.96618    1.000
    Si1086   Si       0.18385    0.63347    0.98395    1.000
    Si1087   Si       0.08750    0.73741    0.96147    1.000
    N1088    N        0.08905    0.66167    0.94616    1.000
    Si1089   Si       0.00490    0.64645    0.97961    1.000
    N1090    N        0.05812    0.73529    0.99110    1.000
    N1091    N        0.01639    0.66135    0.93978    1.000
    N1092    N        0.21605    0.66696    0.99419    1.000
    N1093    N        0.12258    0.71547    0.97611    1.000
    N1094    N        0.15419    0.64695    0.95710    1.000
    Si1095   Si       0.12364    0.67354    0.97269    1.000
    N1096    N        0.01715    0.77952    0.02696    1.000
    N1097    N        0.07430    0.81243    0.04323    1.000
    Si1098   Si       0.09313    0.85289    0.04587    1.000
    N1099    N        0.08683    0.87612    0.00931    1.000
    N1100    N        0.02242    0.85606    0.99994    1.000
    Si1101   Si       0.09513    0.77674    0.05431    1.000
    Si1102   Si       0.23038    0.84083    0.01597    1.000
    N1103    N        0.19926    0.83600    0.04519    1.000
    N1104    N        0.12085    0.76052    0.02485    1.000
    Si1105   Si       0.04661    0.88500    0.02324    1.000
    N1106    N        0.02868    0.92254    0.03581    1.000
    N1107    N        0.07085    0.98151    0.02500    1.000
    Si1108   Si       0.05097    0.95405    0.05587    1.000
    Si1109   Si       0.10866    0.97498    0.04908    1.000
    N1110    N        0.99073    0.00768    0.01997    1.000
    N1111    N        0.13477    0.96112    0.01666    1.000
    Si1112   Si       0.22773    0.91145    0.99877    1.000
    Si1113   Si       0.15189    0.92453    0.00075    1.000
    N1114    N        0.23383    0.90897    0.04217    1.000
    N1115    N        0.16280    0.89753    0.03160    1.000
    N1116    N        0.23597    0.98479    0.00268    1.000
    N1117    N        0.03415    0.78638    0.09921    1.000
    N1118    N        0.05835    0.87234    0.06569    1.000
    N1119    N        0.00081    0.83317    0.06275    1.000
    N1120    N        0.10715    0.79071    0.09480    1.000
    Si1121   Si       0.03336    0.80176    0.05907    1.000
    Si1122   Si       0.03000    0.88216    0.09671    1.000
    N1123    N        0.17354    0.80528    0.10435    1.000
    Si1124   Si       0.13388    0.82326    0.09956    1.000
    Si1125   Si       0.20409    0.80302    0.07434    1.000
    N1126    N        0.13208    0.84665    0.06410    1.000
    N1127    N        0.20387    0.76206    0.05994    1.000
    Si1128   Si       0.16963    0.86581    0.05775    1.000
    N1129    N        0.09025    0.94356    0.07263    1.000
    N1130    N        0.02092    0.97501    0.07938    1.000
    N1131    N        0.99311    0.90397    0.08776    1.000
    Si1132   Si       0.08436    0.93891    0.11457    1.000
    N1133    N        0.23671    0.93900    0.10473    1.000
    N1134    N        0.18303    0.95886    0.07506    1.000
    Si1135   Si       0.20800    0.92388    0.07592    1.000
    Si1136   Si       0.17114    0.99874    0.08386    1.000
    N1137    N        0.12624    0.00196    0.07780    1.000
    N1138    N        0.18451    0.88991    0.09311    1.000
    N1139    N        0.07764    0.81672    0.14925    1.000
    Si1140   Si       0.04051    0.83657    0.15545    1.000
    N1141    N        0.01586    0.85073    0.12331    1.000
    Si1142   Si       0.07354    0.78076    0.12144    1.000
    Si1143   Si       0.00195    0.76282    0.11993    1.000
    Si1144   Si       0.11543    0.83247    0.16274    1.000
    N1145    N        0.13822    0.85351    0.13124    1.000
    N1146    N        0.20296    0.85004    0.14429    1.000
    Si1147   Si       0.18229    0.81085    0.14606    1.000
    N1148    N        0.20834    0.77919    0.16080    1.000
    Si1149   Si       0.17384    0.87958    0.13400    1.000
    N1150    N        0.00402    0.99355    0.15625    1.000
    Si1151   Si       0.09578    0.99753    0.15391    1.000
    Si1152   Si       0.06352    0.90388    0.16032    1.000
    N1153    N        0.10367    0.92262    0.14969    1.000
    N1154    N        0.06818    0.97877    0.12542    1.000
    N1155    N        0.05030    0.91071    0.12082    1.000
    Si1156   Si       0.02730    0.99505    0.11644    1.000
    N1157    N        0.17609    0.91723    0.15804    1.000
    Si1158   Si       0.21421    0.93215    0.17429    1.000
    Si1159   Si       0.13809    0.93864    0.16920    1.000
    N1160    N        0.21032    0.97572    0.17026    1.000
    N1161    N        0.13706    0.98099    0.15664    1.000
    Si1162   Si       0.07099    0.86311    0.21634    1.000
    Si1163   Si       0.01775    0.76906    0.19095    1.000
    N1164    N        0.04884    0.76927    0.22169    1.000
    N1165    N        0.01384    0.81233    0.18044    1.000
    N1166    N        0.04487    0.87052    0.18169    1.000
    N1167    N        0.10978    0.85502    0.20012    1.000
    N1168    N        0.18279    0.86671    0.21356    1.000
    Si1169   Si       0.15661    0.77194    0.19923    1.000
    N1170    N        0.12114    0.76745    0.22549    1.000
    Si1171   Si       0.14277    0.85867    0.22542    1.000
    N1172    N        0.14856    0.80661    0.17468    1.000
    N1173    N        0.00224    0.89970    0.22966    1.000
    N1174    N        0.06620    0.00189    0.18659    1.000
    Si1175   Si       0.01086    0.90194    0.18866    1.000
    N1176    N        0.00394    0.97750    0.22054    1.000
    Si1177   Si       0.03012    0.97725    0.18625    1.000
    N1178    N        0.03896    0.93540    0.18327    1.000
    Si1179   Si       0.17156    0.00053    0.17550    1.000
    N1180    N        0.17288    0.99000    0.21864    1.000
    N1181    N        0.21560    0.92988    0.21782    1.000
    N1182    N        0.13021    0.94121    0.21279    1.000
    Si1183   Si       0.03981    0.79702    0.25422    1.000
    N1184    N        0.05792    0.83590    0.24830    1.000
    N1185    N        0.99949    0.80600    0.24903    1.000
    Si1186   Si       0.06063    0.86634    0.27971    1.000
    N1187    N        0.14017    0.82708    0.25693    1.000
    Si1188   Si       0.14727    0.78505    0.25573    1.000
    Si1189   Si       0.22139    0.77422    0.25484    1.000
    N1190    N        0.18383    0.77346    0.23210    1.000
    Si1191   Si       0.02270    0.99515    0.25573    1.000
    N1192    N        0.03692    0.95864    0.27336    1.000
    Si1193   Si       0.03326    0.91941    0.25061    1.000
    N1194    N        0.10669    0.95130    0.27153    1.000
    Si1195   Si       0.10810    0.91886    0.24287    1.000
    N1196    N        0.02890    0.89511    0.28985    1.000
    N1197    N        0.07158    0.89864    0.24432    1.000
    Si1198   Si       0.20314    0.96582    0.23904    1.000
    Si1199   Si       0.13995    0.97163    0.24562    1.000
    N1200    N        0.23766    0.97986    0.25954    1.000
    N1201    N        0.13699    0.88910    0.25620    1.000
    N1202    N        0.20456    0.89553    0.27709    1.000
    Si1203   Si       0.16526    0.91412    0.28129    1.000
    N1204    N        0.17223    0.95388    0.26835    1.000
    Si1205   Si       0.21381    0.88913    0.23312    1.000
    N1206    N        0.03796    0.83691    0.31992    1.000
    Si1207   Si       0.04404    0.79108    0.33103    1.000
    Si1208   Si       0.07622    0.84182    0.33981    1.000
    N1209    N        0.09567    0.86105    0.30326    1.000
    Si1210   Si       0.00224    0.86741    0.31517    1.000
    N1211    N        0.04787    0.77569    0.28950    1.000
    N1212    N        0.08578    0.79972    0.34370    1.000
    N1213    N        0.16571    0.83805    0.31199    1.000
    Si1214   Si       0.17621    0.79591    0.31406    1.000
    Si1215   Si       0.18240    0.87097    0.33436    1.000
    N1216    N        0.14940    0.76577    0.29549    1.000
    N1217    N        0.22228    0.87932    0.33850    1.000
    N1218    N        0.21437    0.79340    0.29482    1.000
    Si1219   Si       0.13576    0.85879    0.28834    1.000
    N1220    N        0.07345    0.00872    0.30757    1.000
    Si1221   Si       0.02245    0.93320    0.31181    1.000
    N1222    N        0.06305    0.94384    0.32902    1.000
    Si1223   Si       0.07435    0.96716    0.29446    1.000
    N1224    N        0.00750    0.90722    0.34738    1.000
    Si1225   Si       0.23585    0.98327    0.30288    1.000
    Si1226   Si       0.23471    0.90717    0.30902    1.000
    N1227    N        0.14973    0.89712    0.31662    1.000
    N1228    N        0.22386    0.94644    0.32292    1.000
    N1229    N        0.01525    0.79562    0.36798    1.000
    N1230    N        0.09307    0.87037    0.36810    1.000
    N1231    N        0.03426    0.85725    0.39848    1.000
    Si1232   Si       0.00224    0.87995    0.37939    1.000
    Si1233   Si       0.07507    0.87786    0.41027    1.000
    Si1234   Si       0.12400    0.78366    0.36353    1.000
    N1235    N        0.17040    0.78500    0.35530    1.000
    N1236    N        0.16301    0.87666    0.37277    1.000
    N1237    N        0.23099    0.86301    0.40490    1.000
    Si1238   Si       0.18805    0.86974    0.40667    1.000
    N1239    N        0.98584    0.97214    0.38615    1.000
    N1240    N        0.06486    0.98829    0.37725    1.000
    Si1241   Si       0.08101    0.94715    0.36884    1.000
    N1242    N        0.06955    0.92220    0.40320    1.000
    N1243    N        0.24340    0.00508    0.37057    1.000
    N1244    N        0.19213    0.95603    0.38399    1.000
    Si1245   Si       0.14960    0.96758    0.37990    1.000
    Si1246   Si       0.22966    0.96407    0.36597    1.000
    Si1247   Si       0.12803    0.89552    0.35544    1.000
    N1248    N        0.12298    0.93641    0.36404    1.000
    N1249    N        0.02269    0.77844    0.42900    1.000
    Si1250   Si       0.01836    0.82048    0.41749    1.000
    N1251    N        0.02848    0.83171    0.45913    1.000
    N1252    N        0.10872    0.86458    0.43399    1.000
    N1253    N        0.08406    0.77933    0.45891    1.000
    Si1254   Si       0.18415    0.81551    0.46360    1.000
    Si1255   Si       0.13114    0.82840    0.43111    1.000
    N1256    N        0.17396    0.83455    0.42508    1.000
    N1257    N        0.18081    0.77212    0.45763    1.000
    N1258    N        0.11968    0.79542    0.40645    1.000
    N1259    N        0.23056    0.81639    0.46606    1.000
    N1260    N        0.02540    0.95393    0.44285    1.000
    Si1261   Si       0.04470    0.98758    0.41642    1.000
    Si1262   Si       0.06651    0.93577    0.44737    1.000
    N1263    N        0.07951    0.98051    0.44026    1.000
    N1264    N        0.05979    0.89226    0.45679    1.000
    N1265    N        0.21464    0.95709    0.45322    1.000
    N1266    N        0.18150    0.90115    0.43570    1.000
    N1267    N        0.14640    0.96214    0.42344    1.000
    Si1268   Si       0.12100    0.98537    0.44878    1.000
    Si1269   Si       0.18669    0.94238    0.42532    1.000
    N1270    N        0.07194    0.80998    0.50923    1.000
    N1271    N        0.03987    0.86757    0.51763    1.000
    Si1272   Si       0.02906    0.87171    0.47690    1.000
    N1273    N        0.01731    0.76958    0.49745    1.000
    Si1274   Si       0.04591    0.79372    0.47491    1.000
    N1275    N        0.11079    0.87051    0.50928    1.000
    Si1276   Si       0.11044    0.79227    0.49577    1.000
    Si1277   Si       0.07535    0.84719    0.52797    1.000
    N1278    N        0.18676    0.84961    0.49365    1.000
    Si1279   Si       0.14758    0.84667    0.51409    1.000
    Si1280   Si       0.22930    0.84535    0.50517    1.000
    N1281    N        0.13803    0.81759    0.47391    1.000
    Si1282   Si       0.10333    0.95561    0.51011    1.000
    N1283    N        0.00362    0.93685    0.51253    1.000
    Si1284   Si       0.00304    0.96282    0.47924    1.000
    N1285    N        0.06105    0.96893    0.51208    1.000
    N1286    N        0.10267    0.93080    0.47401    1.000
    N1287    N        0.01062    0.00557    0.48976    1.000
    Si1288   Si       0.10086    0.88702    0.47133    1.000
    Si1289   Si       0.19577    0.88823    0.47407    1.000
    Si1290   Si       0.20568    0.95473    0.49689    1.000
    N1291    N        0.18283    0.91635    0.50351    1.000
    N1292    N        0.12704    0.98928    0.49064    1.000
    N1293    N        0.19013    0.98703    0.51752    1.000
    N1294    N        0.08904    0.85804    0.56823    1.000
    Si1295   Si       0.01678    0.86520    0.55320    1.000
    N1296    N        0.03015    0.83062    0.57510    1.000
    N1297    N        0.18562    0.76748    0.52919    1.000
    N1298    N        0.13442    0.81063    0.53399    1.000
    Si1299   Si       0.16252    0.78957    0.55664    1.000
    N1300    N        0.15988    0.87176    0.55124    1.000
    N1301    N        0.22814    0.87723    0.53759    1.000
    N1302    N        0.18560    0.81797    0.58380    1.000
    N1303    N        0.08520    0.92351    0.54274    1.000
    N1304    N        0.02753    0.90428    0.56716    1.000
    N1305    N        0.03587    0.96444    0.57574    1.000
    Si1306   Si       0.04199    0.93716    0.54019    1.000
    Si1307   Si       0.10278    0.94701    0.57674    1.000
    Si1308   Si       0.02383    0.00496    0.58467    1.000
    Si1309   Si       0.11313    0.89058    0.55176    1.000
    N1310    N        0.12775    0.96847    0.54658    1.000
    Si1311   Si       0.19268    0.89981    0.54222    1.000
    Si1312   Si       0.15038    0.99929    0.52545    1.000
    N1313    N        0.19881    0.92791    0.57600    1.000
    N1314    N        0.06807    0.85497    0.63581    1.000
    Si1315   Si       0.06621    0.83391    0.59796    1.000
    N1316    N        0.08265    0.79268    0.59776    1.000
    N1317    N        0.00543    0.81448    0.63468    1.000
    Si1318   Si       0.00313    0.80160    0.59153    1.000
    N1319    N        0.02057    0.75969    0.58560    1.000
    Si1320   Si       0.12172    0.79143    0.61426    1.000
    N1321    N        0.12983    0.83673    0.61872    1.000
    Si1322   Si       0.21332    0.80081    0.61047    1.000
    Si1323   Si       0.16274    0.85305    0.59304    1.000
    N1324    N        0.17952    0.88258    0.62209    1.000
    N1325    N        0.14108    0.76472    0.58555    1.000
    N1326    N        0.99389    0.88664    0.62036    1.000
    Si1327   Si       0.06198    0.97054    0.63390    1.000
    N1328    N        0.04845    0.93029    0.63481    1.000
    N1329    N        0.09758    0.97585    0.60912    1.000
    Si1330   Si       0.01806    0.92808    0.60210    1.000
    N1331    N        0.03503    0.00459    0.62647    1.000
    N1332    N        0.16250    0.95782    0.62934    1.000
    N1333    N        0.12785    0.91261    0.58768    1.000
    Si1334   Si       0.13702    0.99200    0.61885    1.000
    N1335    N        0.23791    0.95850    0.63440    1.000
    Si1336   Si       0.16729    0.92115    0.60535    1.000
    Si1337   Si       0.23552    0.94989    0.58808    1.000
    N1338    N        0.06878    0.77763    0.68379    1.000
    Si1339   Si       0.00493    0.85643    0.65044    1.000
    Si1340   Si       0.11042    0.85478    0.65318    1.000
    N1341    N        0.02737    0.88307    0.67659    1.000
    Si1342   Si       0.11277    0.78636    0.68739    1.000
    N1343    N        0.12168    0.82999    0.68849    1.000
    N1344    N        0.18346    0.87177    0.69075    1.000
    Si1345   Si       0.22238    0.80717    0.68354    1.000
    Si1346   Si       0.20694    0.87174    0.65352    1.000
    N1347    N        0.13204    0.76833    0.65106    1.000
    N1348    N        0.23915    0.76681    0.68907    1.000
    N1349    N        0.21527    0.82884    0.64509    1.000
    N1350    N        0.07526    0.97999    0.67379    1.000
    Si1351   Si       0.06269    0.89477    0.65321    1.000
    N1352    N        0.10261    0.89159    0.67443    1.000
    N1353    N        0.20173    0.93796    0.68759    1.000
    Si1354   Si       0.19436    0.96658    0.65669    1.000
    Si1355   Si       0.03441    0.86724    0.71519    1.000
    Si1356   Si       0.04464    0.78912    0.71875    1.000
    N1357    N        0.02685    0.82624    0.71308    1.000
    N1358    N        0.07256    0.87744    0.73515    1.000
    N1359    N        0.99964    0.88076    0.73960    1.000
    N1360    N        0.06087    0.77865    0.75954    1.000
    N1361    N        0.16199    0.84087    0.75218    1.000
    Si1362   Si       0.17083    0.77165    0.73049    1.000
    N1363    N        0.12743    0.76968    0.72528    1.000
    Si1364   Si       0.16018    0.83864    0.70849    1.000
    N1365    N        0.23332    0.83700    0.76264    1.000
    N1366    N        0.18473    0.80240    0.70365    1.000
    Si1367   Si       0.07923    0.97311    0.71499    1.000
    N1368    N        0.09627    0.94002    0.73394    1.000
    Si1369   Si       0.00686    0.97719    0.71822    1.000
    Si1370   Si       0.10708    0.90195    0.71681    1.000
    N1371    N        0.04244    0.96633    0.73703    1.000
    N1372    N        0.10942    0.00563    0.71626    1.000
    Si1373   Si       0.18816    0.90644    0.71520    1.000
    N1374    N        0.14778    0.90354    0.73484    1.000
    N1375    N        0.21965    0.90261    0.74389    1.000
    N1376    N        0.15639    0.97508    0.75700    1.000
    N1377    N        0.03541    0.84206    0.78314    1.000
    Si1378   Si       0.06785    0.87112    0.77885    1.000
    Si1379   Si       0.04671    0.80240    0.79611    1.000
    N1380    N        0.10764    0.85874    0.79356    1.000
    N1381    N        0.01219    0.78065    0.81604    1.000
    Si1382   Si       0.99321    0.85235    0.77341    1.000
    Si1383   Si       0.19480    0.82210    0.77739    1.000
    N1384    N        0.18345    0.86853    0.80200    1.000
    N1385    N        0.17787    0.77876    0.77204    1.000
    Si1386   Si       0.14579    0.87443    0.77426    1.000
    Si1387   Si       0.22064    0.87920    0.78027    1.000
    Si1388   Si       0.15304    0.76798    0.80520    1.000
    N1389    N        0.20046    0.81028    0.82068    1.000
    N1390    N        0.09564    0.96709    0.78740    1.000
    N1391    N        0.05439    0.91210    0.79280    1.000
    Si1392   Si       0.06554    0.94417    0.76795    1.000
    Si1393   Si       0.11543    0.00160    0.80669    1.000
    Si1394   Si       0.12812    0.94267    0.76524    1.000
    Si1395   Si       0.18311    0.98671    0.79028    1.000
    N1396    N        0.20523    0.95638    0.80848    1.000
    N1397    N        0.13700    0.91361    0.79551    1.000
    N1398    N        0.01316    0.83674    0.85736    1.000
    Si1399   Si       0.05456    0.82087    0.86761    1.000
    N1400    N        0.07293    0.81121    0.82992    1.000
    Si1401   Si       0.99569    0.87369    0.84804    1.000
    Si1402   Si       0.98870    0.80031    0.84934    1.000
    Si1403   Si       0.11266    0.82988    0.82421    1.000
    N1404    N        0.13572    0.79644    0.83195    1.000
    N1405    N        0.13768    0.86040    0.84865    1.000
    Si1406   Si       0.20789    0.77239    0.84175    1.000
    N1407    N        0.21067    0.85929    0.86815    1.000
    Si1408   Si       0.18108    0.84557    0.83934    1.000
    Si1409   Si       0.13974    0.78444    0.87585    1.000
    N1410    N        0.18311    0.78089    0.87812    1.000
    Si1411   Si       0.05319    0.92864    0.83360    1.000
    Si1412   Si       0.06696    0.99313    0.87005    1.000
    N1413    N        0.04191    0.96910    0.84380    1.000
    N1414    N        0.02642    0.90376    0.85984    1.000
    N1415    N        0.09411    0.92051    0.84910    1.000
    Si1416   Si       0.00459    0.99344    0.84490    1.000
    Si1417   Si       0.99200    0.93190    0.87360    1.000
    N1418    N        0.22311    0.93307    0.86904    1.000
    N1419    N        0.19583    0.99213    0.87604    1.000
    Si1420   Si       0.12988    0.90213    0.83498    1.000
    N1421    N        0.16441    0.92124    0.85911    1.000
    Si1422   Si       0.18885    0.95631    0.84974    1.000
    N1423    N        0.15530    0.99551    0.82509    1.000
    N1424    N        0.06435    0.78969    0.89834    1.000
    Si1425   Si       0.09017    0.80612    0.92911    1.000
    N1426    N        0.01500    0.86601    0.92494    1.000
    N1427    N        0.99175    0.77806    0.88686    1.000
    N1428    N        0.07315    0.85860    0.88308    1.000
    Si1429   Si       0.11559    0.85920    0.88804    1.000
    N1430    N        0.12502    0.81831    0.90277    1.000
    Si1431   Si       0.21245    0.79239    0.90743    1.000
    N1432    N        0.21983    0.76146    0.93674    1.000
    N1433    N        0.20420    0.82367    0.93656    1.000
    Si1434   Si       0.04144    0.88495    0.89707    1.000
    N1435    N        0.99547    0.94877    0.91324    1.000
    N1436    N        0.03889    0.99773    0.90384    1.000
    N1437    N        0.05742    0.92484    0.91443    1.000
    N1438    N        0.09889    0.97330    0.89189    1.000
    Si1439   Si       0.09422    0.93045    0.89142    1.000
    Si1440   Si       0.03310    0.95926    0.92843    1.000
    N1441    N        0.22511    0.97995    0.93736    1.000
    N1442    N        0.15366    0.95650    0.93467    1.000
    Si1443   Si       0.19681    0.89830    0.87932    1.000
    N1444    N        0.11990    0.89857    0.90604    1.000
    Si1445   Si       0.23047    0.00168    0.89996    1.000
    N1446    N        0.18868    0.89614    0.92127    1.000
    Si1447   Si       0.12449    0.98783    0.92370    1.000
    Si1448   Si       0.15086    0.91246    0.93286    1.000
    Si1449   Si       0.03234    0.84187    0.95842    1.000
    N1450    N        0.00589    0.80459    0.95473    1.000
    N1451    N        0.07576    0.84031    0.95199    1.000
    N1452    N        0.10626    0.77696    0.95801    1.000
    Si1453   Si       0.10903    0.86034    0.97523    1.000
    Si1454   Si       0.99037    0.78508    0.99244    1.000
    Si1455   Si       0.13467    0.78319    0.98892    1.000
    Si1456   Si       0.20938    0.79121    0.96709    1.000
    N1457    N        0.22014    0.86943    0.98458    1.000
    N1458    N        0.17642    0.77451    0.99014    1.000
    N1459    N        0.13214    0.82784    0.98931    1.000
    Si1460   Si       0.21622    0.86649    0.94228    1.000
    Si1461   Si       0.06652    0.99993    0.98606    1.000
    N1462    N        0.03191    0.98128    0.96674    1.000
    N1463    N        0.10458    0.99844    0.96105    1.000
    Si1464   Si       0.99016    0.99128    0.98019    1.000
    N1465    N        0.13440    0.89748    0.97069    1.000
    N1466    N        0.19288    0.93504    0.98608    1.000
    Si1467   Si       0.18785    0.97079    0.95948    1.000
    Si1468   Si       0.13422    0.00017    0.99348    1.000
    N1469    N        0.17422    0.00666    0.97950    1.000
    N1470    N        0.34072    0.08092    0.02655    1.000
    N1471    N        0.28958    0.03111    0.02930    1.000
    Si1472   Si       0.33324    0.04048    0.04002    1.000
    Si1473   Si       0.26220    0.12378    0.01800    1.000
    Si1474   Si       0.32800    0.11524    0.05001    1.000
    Si1475   Si       0.27225    0.05665    0.99847    1.000
    N1476    N        0.36664    0.01303    0.03413    1.000
    N1477    N        0.45661    0.12145    0.00179    1.000
    N1478    N        0.41940    0.08579    0.04573    1.000
    Si1479   Si       0.42794    0.08625    0.00451    1.000
    N1480    N        0.26826    0.16624    0.01171    1.000
    N1481    N        0.33735    0.15501    0.03427    1.000
    N1482    N        0.24861    0.22836    0.02841    1.000
    Si1483   Si       0.35679    0.23370    0.02944    1.000
    Si1484   Si       0.30293    0.18246    0.03331    1.000
    N1485    N        0.31561    0.22169    0.01412    1.000
    Si1486   Si       0.28372    0.25215    0.02087    1.000
    Si1487   Si       0.24155    0.19710    0.99600    1.000
    N1488    N        0.38427    0.20281    0.01144    1.000
    Si1489   Si       0.44832    0.23618    0.03841    1.000
    N1490    N        0.45637    0.20424    0.01039    1.000
    Si1491   Si       0.37775    0.16052    0.02122    1.000
    N1492    N        0.40195    0.14923    0.05664    1.000
    Si1493   Si       0.27106    0.10315    0.09469    1.000
    N1494    N        0.25479    0.06221    0.09021    1.000
    N1495    N        0.32435    0.03314    0.08383    1.000
    N1496    N        0.35184    0.11370    0.08638    1.000
    Si1497   Si       0.28024    0.03006    0.07606    1.000
    N1498    N        0.28363    0.11360    0.05418    1.000
    Si1499   Si       0.34984    0.00973    0.11071    1.000
    N1500    N        0.45544    0.03869    0.09190    1.000
    Si1501   Si       0.44771    0.07889    0.07795    1.000
    N1502    N        0.48044    0.10741    0.07217    1.000
    Si1503   Si       0.39385    0.10868    0.07188    1.000
    N1504    N        0.41533    0.09339    0.10573    1.000
    N1505    N        0.39194    0.02048    0.10727    1.000
    Si1506   Si       0.48422    0.13489    0.10590    1.000
    Si1507   Si       0.24922    0.18016    0.08588    1.000
    N1508    N        0.28940    0.19056    0.07369    1.000
    N1509    N        0.34789    0.22755    0.07296    1.000
    Si1510   Si       0.30558    0.22922    0.08729    1.000
    N1511    N        0.25209    0.14186    0.10917    1.000
    N1512    N        0.23976    0.22369    0.09431    1.000
    Si1513   Si       0.37060    0.22509    0.10748    1.000
    Si1514   Si       0.41882    0.17644    0.08515    1.000
    N1515    N        0.43035    0.21797    0.07530    1.000
    N1516    N        0.38329    0.18206    0.10934    1.000
    Si1517   Si       0.43448    0.24587    0.10998    1.000
    N1518    N        0.45156    0.16160    0.11083    1.000
    N1519    N        0.29736    0.09675    0.12834    1.000
    Si1520   Si       0.33854    0.10799    0.12678    1.000
    Si1521   Si       0.27613    0.07489    0.16133    1.000
    N1522    N        0.35775    0.07083    0.13950    1.000
    N1523    N        0.24401    0.04574    0.15481    1.000
    N1524    N        0.33602    0.00659    0.15169    1.000
    N1525    N        0.48657    0.10652    0.13991    1.000
    Si1526   Si       0.39824    0.05988    0.12757    1.000
    N1527    N        0.42465    0.05050    0.16090    1.000
    N1528    N        0.34173    0.14097    0.15332    1.000
    N1529    N        0.35319    0.22039    0.14761    1.000
    Si1530   Si       0.25508    0.24602    0.12742    1.000
    Si1531   Si       0.25177    0.14440    0.15483    1.000
    N1532    N        0.29761    0.24452    0.12718    1.000
    N1533    N        0.24390    0.23086    0.16632    1.000
    Si1534   Si       0.32788    0.25629    0.15958    1.000
    N1535    N        0.28239    0.17076    0.16831    1.000
    Si1536   Si       0.36641    0.17867    0.15249    1.000
    N1537    N        0.44165    0.22396    0.14864    1.000
    Si1538   Si       0.44507    0.18037    0.14931    1.000
    N1539    N        0.40476    0.17221    0.17021    1.000
    N1540    N        0.30687    0.05947    0.18666    1.000
    Si1541   Si       0.25784    0.11820    0.22562    1.000
    N1542    N        0.25689    0.10932    0.18147    1.000
    Si1543   Si       0.34371    0.04330    0.17277    1.000
    N1544    N        0.37074    0.04254    0.20532    1.000
    N1545    N        0.45404    0.09997    0.20060    1.000
    Si1546   Si       0.40965    0.02665    0.19547    1.000
    N1547    N        0.44480    0.04168    0.22166    1.000
    Si1548   Si       0.45881    0.06053    0.18408    1.000
    Si1549   Si       0.48341    0.12322    0.17919    1.000
    N1550    N        0.29799    0.13711    0.22476    1.000
    Si1551   Si       0.31787    0.15158    0.18760    1.000
    N1552    N        0.34675    0.18015    0.19899    1.000
    N1553    N        0.30537    0.24282    0.19515    1.000
    Si1554   Si       0.27657    0.21107    0.18674    1.000
    N1555    N        0.25862    0.20038    0.22374    1.000
    N1556    N        0.47070    0.22437    0.21109    1.000
    N1557    N        0.47390    0.16639    0.17856    1.000
    N1558    N        0.40318    0.22653    0.21248    1.000
    Si1559   Si       0.43803    0.24003    0.18885    1.000
    Si1560   Si       0.38881    0.18609    0.20875    1.000
    Si1561   Si       0.48759    0.18655    0.21517    1.000
    Si1562   Si       0.31633    0.11998    0.26126    1.000
    N1563    N        0.33190    0.08421    0.24538    1.000
    N1564    N        0.26565    0.07854    0.24559    1.000
    N1565    N        0.30916    0.01997    0.25241    1.000
    Si1566   Si       0.30153    0.05650    0.23041    1.000
    Si1567   Si       0.25969    0.08519    0.28876    1.000
    Si1568   Si       0.45495    0.01494    0.25598    1.000
    Si1569   Si       0.36825    0.06413    0.24452    1.000
    N1570    N        0.37301    0.03181    0.27512    1.000
    N1571    N        0.39912    0.09238    0.25116    1.000
    N1572    N        0.47301    0.09283    0.26946    1.000
    Si1573   Si       0.44119    0.08494    0.24046    1.000
    Si1574   Si       0.38917    0.13126    0.26888    1.000
    N1575    N        0.34841    0.14235    0.27993    1.000
    Si1576   Si       0.24808    0.22071    0.26006    1.000
    N1577    N        0.28698    0.24352    0.26719    1.000
    N1578    N        0.47372    0.16465    0.25067    1.000
    N1579    N        0.40291    0.15696    0.23617    1.000
    Si1580   Si       0.38939    0.23999    0.25169    1.000
    Si1581   Si       0.44168    0.17848    0.27776    1.000
    N1582    N        0.40816    0.20828    0.27719    1.000
    N1583    N        0.26744    0.06322    0.32549    1.000
    N1584    N        0.24512    0.13101    0.34871    1.000
    Si1585   Si       0.28745    0.13289    0.33427    1.000
    N1586    N        0.28437    0.12002    0.29135    1.000
    Si1587   Si       0.40204    0.02542    0.30730    1.000
    N1588    N        0.45053    0.08324    0.33665    1.000
    Si1589   Si       0.47178    0.06584    0.30408    1.000
    Si1590   Si       0.44845    0.12497    0.32726    1.000
    N1591    N        0.39290    0.05026    0.34343    1.000
    N1592    N        0.43927    0.03997    0.29014    1.000
    Si1593   Si       0.34135    0.17351    0.30980    1.000
    Si1594   Si       0.30969    0.24236    0.30495    1.000
    N1595    N        0.30462    0.17259    0.32960    1.000
    N1596    N        0.34324    0.21526    0.29618    1.000
    N1597    N        0.29025    0.23798    0.34451    1.000
    N1598    N        0.48908    0.13567    0.32016    1.000
    N1599    N        0.42492    0.14111    0.29462    1.000
    Si1600   Si       0.48684    0.23789    0.30559    1.000
    N1601    N        0.46401    0.19910    0.31023    1.000
    N1602    N        0.37569    0.17869    0.33515    1.000
    N1603    N        0.40307    0.23934    0.34276    1.000
    Si1604   Si       0.38472    0.21542    0.31294    1.000
    Si1605   Si       0.47259    0.18088    0.35031    1.000
    Si1606   Si       0.34471    0.11368    0.38745    1.000
    N1607    N        0.26955    0.05941    0.39241    1.000
    Si1608   Si       0.29605    0.06871    0.35770    1.000
    N1609    N        0.31393    0.10745    0.35706    1.000
    N1610    N        0.35094    0.07132    0.39979    1.000
    Si1611   Si       0.35965    0.04169    0.37036    1.000
    N1612    N        0.32239    0.03503    0.34922    1.000
    Si1613   Si       0.42877    0.06192    0.36706    1.000
    N1614    N        0.43880    0.02332    0.38513    1.000
    N1615    N        0.43302    0.09215    0.39850    1.000
    Si1616   Si       0.42267    0.13440    0.39382    1.000
    N1617    N        0.33557    0.20443    0.38529    1.000
    Si1618   Si       0.29855    0.19893    0.36270    1.000
    N1619    N        0.27139    0.17848    0.38996    1.000
    Si1620   Si       0.33361    0.24258    0.40635    1.000
    Si1621   Si       0.42425    0.23111    0.37776    1.000
    N1622    N        0.46667    0.21949    0.37405    1.000
    Si1623   Si       0.37190    0.18154    0.37858    1.000
    N1624    N        0.44182    0.15272    0.35997    1.000
    N1625    N        0.38086    0.13858    0.38881    1.000
    N1626    N        0.40319    0.20119    0.40053    1.000
    Si1627   Si       0.27448    0.08296    0.43155    1.000
    Si1628   Si       0.34863    0.06840    0.44241    1.000
    N1629    N        0.25764    0.12421    0.42997    1.000
    N1630    N        0.30713    0.06627    0.45220    1.000
    N1631    N        0.24667    0.05467    0.45027    1.000
    N1632    N        0.32563    0.13306    0.42234    1.000
    Si1633   Si       0.24492    0.02642    0.41089    1.000
    Si1634   Si       0.46220    0.07942    0.43070    1.000
    N1635    N        0.37398    0.10035    0.46098    1.000
    N1636    N        0.49177    0.10656    0.45028    1.000
    N1637    N        0.44054    0.06021    0.46341    1.000
    Si1638   Si       0.46759    0.01012    0.41520    1.000
    Si1639   Si       0.35312    0.13775    0.45757    1.000
    Si1640   Si       0.26885    0.22234    0.43922    1.000
    N1641    N        0.29153    0.18794    0.45064    1.000
    Si1642   Si       0.28945    0.15415    0.42252    1.000
    N1643    N        0.34976    0.24655    0.44497    1.000
    N1644    N        0.28867    0.24691    0.41048    1.000
    Si1645   Si       0.47836    0.14805    0.45601    1.000
    N1646    N        0.37603    0.17475    0.45685    1.000
    N1647    N        0.47700    0.25022    0.44708    1.000
    Si1648   Si       0.41581    0.18756    0.43971    1.000
    N1649    N        0.44239    0.15401    0.43018    1.000
    N1650    N        0.31706    0.01605    0.49382    1.000
    Si1651   Si       0.27713    0.02619    0.47102    1.000
    N1652    N        0.33447    0.08478    0.52851    1.000
    Si1653   Si       0.40073    0.06918    0.47927    1.000
    Si1654   Si       0.46149    0.02849    0.48238    1.000
    N1655    N        0.40721    0.07963    0.52109    1.000
    N1656    N        0.37392    0.03802    0.46351    1.000
    N1657    N        0.34188    0.21361    0.50318    1.000
    Si1658   Si       0.24760    0.22508    0.51080    1.000
    N1659    N        0.32413    0.14670    0.49117    1.000
    N1660    N        0.27691    0.19433    0.51988    1.000
    Si1661   Si       0.30877    0.18799    0.48991    1.000
    N1662    N        0.26660    0.24450    0.47537    1.000
    N1663    N        0.47111    0.22898    0.51547    1.000
    N1664    N        0.45999    0.16230    0.49338    1.000
    Si1665   Si       0.44847    0.24660    0.48100    1.000
    Si1666   Si       0.37059    0.21608    0.47135    1.000
    N1667    N        0.41483    0.22210    0.46801    1.000
    N1668    N        0.33476    0.02147    0.55422    1.000
    N1669    N        0.27954    0.05895    0.55126    1.000
    Si1670   Si       0.27534    0.10067    0.56900    1.000
    Si1671   Si       0.24929    0.02963    0.56839    1.000
    Si1672   Si       0.32776    0.12731    0.52708    1.000
    Si1673   Si       0.31362    0.04694    0.52869    1.000
    Si1674   Si       0.37441    0.09072    0.54512    1.000
    Si1675   Si       0.44166    0.06529    0.54283    1.000
    N1676    N        0.47436    0.09287    0.54363    1.000
    Si1677   Si       0.46587    0.12648    0.57304    1.000
    N1678    N        0.42336    0.12554    0.57872    1.000
    N1679    N        0.37542    0.06941    0.58252    1.000
    N1680    N        0.44698    0.02628    0.52414    1.000
    N1681    N        0.29477    0.13914    0.55232    1.000
    N1682    N        0.24534    0.25119    0.54599    1.000
    Si1683   Si       0.33692    0.23304    0.54243    1.000
    N1684    N        0.31807    0.20616    0.57032    1.000
    Si1685   Si       0.28407    0.18055    0.56084    1.000
    Si1686   Si       0.39783    0.15836    0.56732    1.000
    Si1687   Si       0.45729    0.18796    0.52822    1.000
    N1688    N        0.36652    0.13486    0.54864    1.000
    N1689    N        0.41947    0.19142    0.54684    1.000
    Si1690   Si       0.40932    0.22004    0.57822    1.000
    N1691    N        0.48217    0.16398    0.55824    1.000
    N1692    N        0.36978    0.23830    0.57086    1.000
    N1693    N        0.29486    0.09802    0.60731    1.000
    N1694    N        0.32200    0.03712    0.62286    1.000
    N1695    N        0.25378    0.03697    0.61118    1.000
    Si1696   Si       0.32851    0.11836    0.62757    1.000
    Si1697   Si       0.28654    0.06247    0.63133    1.000
    Si1698   Si       0.35332    0.03359    0.59211    1.000
    N1699    N        0.37121    0.11340    0.62873    1.000
    Si1700   Si       0.40547    0.09307    0.60380    1.000
    Si1701   Si       0.42457    0.02274    0.60532    1.000
    Si1702   Si       0.46419    0.07135    0.62034    1.000
    N1703    N        0.48320    0.11261    0.61053    1.000
    N1704    N        0.43578    0.06136    0.58733    1.000
    N1705    N        0.44156    0.03525    0.64293    1.000
    N1706    N        0.43201    0.09905    0.64228    1.000
    N1707    N        0.32765    0.16274    0.62110    1.000
    Si1708   Si       0.34955    0.20067    0.60123    1.000
    N1709    N        0.28260    0.21913    0.63725    1.000
    N1710    N        0.24774    0.18257    0.58788    1.000
    N1711    N        0.34498    0.22129    0.64224    1.000
    Si1712   Si       0.24237    0.21148    0.62084    1.000
    N1713    N        0.39226    0.18669    0.60348    1.000
    Si1714   Si       0.46998    0.21903    0.62896    1.000
    N1715    N        0.45865    0.17663    0.63273    1.000
    Si1716   Si       0.41416    0.18256    0.64121    1.000
    N1717    N        0.44454    0.23524    0.59731    1.000
    N1718    N        0.30916    0.11435    0.66645    1.000
    N1719    N        0.25982    0.06712    0.66818    1.000
    Si1720   Si       0.27822    0.03555    0.69383    1.000
    Si1721   Si       0.39491    0.11456    0.66502    1.000
    Si1722   Si       0.46385    0.03071    0.67925    1.000
    N1723    N        0.36902    0.10724    0.69725    1.000
    Si1724   Si       0.28142    0.13956    0.68917    1.000
    N1725    N        0.29693    0.17982    0.68701    1.000
    Si1726   Si       0.31295    0.18988    0.64979    1.000
    Si1727   Si       0.31033    0.25153    0.64375    1.000
    N1728    N        0.47708    0.13404    0.68871    1.000
    N1729    N        0.47783    0.23117    0.67327    1.000
    N1730    N        0.41472    0.15215    0.67294    1.000
    Si1731   Si       0.37854    0.24545    0.65669    1.000
    Si1732   Si       0.44282    0.22660    0.69790    1.000
    N1733    N        0.41260    0.22028    0.66555    1.000
    Si1734   Si       0.46046    0.13459    0.64701    1.000
    N1735    N        0.29798    0.11589    0.72773    1.000
    N1736    N        0.25190    0.02277    0.72453    1.000
    Si1737   Si       0.34258    0.01526    0.71074    1.000
    N1738    N        0.35315    0.09584    0.75636    1.000
    N1739    N        0.31853    0.05054    0.69976    1.000
    Si1740   Si       0.32596    0.09300    0.70130    1.000
    N1741    N        0.42390    0.12481    0.73877    1.000
    Si1742   Si       0.48028    0.04238    0.75040    1.000
    Si1743   Si       0.38020    0.12257    0.73541    1.000
    N1744    N        0.45111    0.02782    0.72016    1.000
    N1745    N        0.37957    0.02347    0.73383    1.000
    N1746    N        0.47864    0.08596    0.74533    1.000
    Si1747   Si       0.37398    0.05773    0.76458    1.000
    N1748    N        0.32456    0.21522    0.73607    1.000
    N1749    N        0.25377    0.22305    0.71795    1.000
    Si1750   Si       0.29502    0.21948    0.70534    1.000
    N1751    N        0.37071    0.16343    0.73991    1.000
    N1752    N        0.44546    0.19157    0.72499    1.000
    Si1753   Si       0.43900    0.15203    0.71082    1.000
    Si1754   Si       0.31126    0.04747    0.80414    1.000
    N1755    N        0.29914    0.08721    0.79575    1.000
    N1756    N        0.35263    0.03743    0.79633    1.000
    N1757    N        0.28042    0.02242    0.78510    1.000
    Si1758   Si       0.31508    0.11692    0.76667    1.000
    Si1759   Si       0.26266    0.10662    0.81442    1.000
    Si1760   Si       0.23978    0.03849    0.79437    1.000
    N1761    N        0.47178    0.03107    0.79174    1.000
    N1762    N        0.45350    0.11280    0.80537    1.000
    N1763    N        0.41657    0.06446    0.77369    1.000
    Si1764   Si       0.42995    0.03765    0.80624    1.000
    Si1765   Si       0.44188    0.09859    0.76700    1.000
    N1766    N        0.25078    0.13848    0.78302    1.000
    N1767    N        0.31966    0.15697    0.78566    1.000
    N1768    N        0.28589    0.23596    0.78147    1.000
    N1769    N        0.35760    0.21872    0.78767    1.000
    Si1770   Si       0.32700    0.24269    0.76885    1.000
    Si1771   Si       0.34440    0.18620    0.76406    1.000
    Si1772   Si       0.24919    0.23091    0.75974    1.000
    N1773    N        0.42663    0.20396    0.80454    1.000
    Si1774   Si       0.48693    0.13893    0.81272    1.000
    N1775    N        0.46829    0.24275    0.76897    1.000
    Si1776   Si       0.45515    0.20013    0.76840    1.000
    Si1777   Si       0.39494    0.23341    0.80234    1.000
    N1778    N        0.30526    0.03535    0.84582    1.000
    Si1779   Si       0.33874    0.03178    0.87419    1.000
    N1780    N        0.28662    0.13199    0.84229    1.000
    N1781    N        0.48017    0.02276    0.85936    1.000
    N1782    N        0.41993    0.05901    0.84301    1.000
    Si1783   Si       0.42685    0.10136    0.83911    1.000
    N1784    N        0.39157    0.12714    0.84316    1.000
    N1785    N        0.45020    0.10810    0.87491    1.000
    Si1786   Si       0.40526    0.04196    0.88142    1.000
    Si1787   Si       0.30499    0.16727    0.82541    1.000
    N1788    N        0.27308    0.19600    0.83967    1.000
    N1789    N        0.33819    0.18244    0.84862    1.000
    N1790    N        0.30759    0.25145    0.85113    1.000
    Si1791   Si       0.32489    0.21779    0.87370    1.000
    Si1792   Si       0.27853    0.23735    0.82378    1.000
    Si1793   Si       0.42041    0.20342    0.84974    1.000
    N1794    N        0.48334    0.15850    0.85213    1.000
    N1795    N        0.45656    0.21771    0.87012    1.000
    N1796    N        0.39864    0.24267    0.84401    1.000
    Si1797   Si       0.36899    0.15429    0.86504    1.000
    N1798    N        0.26999    0.09947    0.91387    1.000
    N1799    N        0.32128    0.01757    0.91096    1.000
    Si1800   Si       0.36010    0.09621    0.91232    1.000
    Si1801   Si       0.24302    0.07146    0.93394    1.000
    Si1802   Si       0.26226    0.12289    0.87749    1.000
    Si1803   Si       0.48536    0.12850    0.88982    1.000
    N1804    N        0.36678    0.06281    0.88604    1.000
    Si1805   Si       0.43420    0.09956    0.91493    1.000
    N1806    N        0.42496    0.05783    0.91890    1.000
    N1807    N        0.39623    0.11706    0.92597    1.000
    N1808    N        0.46918    0.01289    0.92951    1.000
    N1809    N        0.46630    0.11873    0.93201    1.000
    N1810    N        0.34215    0.13367    0.89683    1.000
    N1811    N        0.24631    0.16108    0.89223    1.000
    N1812    N        0.35917    0.23635    0.89529    1.000
    Si1813   Si       0.26679    0.18048    0.92492    1.000
    N1814    N        0.30219    0.19750    0.90531    1.000
    Si1815   Si       0.32860    0.16507    0.92163    1.000
    N1816    N        0.36315    0.18110    0.93812    1.000
    N1817    N        0.39762    0.18495    0.88234    1.000
    Si1818   Si       0.38774    0.21001    0.91509    1.000
    N1819    N        0.27371    0.04675    0.95605    1.000
    Si1820   Si       0.29571    0.10760    0.94740    1.000
    N1821    N        0.33980    0.02160    0.97728    1.000
    N1822    N        0.33308    0.08346    0.94757    1.000
    Si1823   Si       0.31603    0.04159    0.94598    1.000
    Si1824   Si       0.35937    0.09236    0.98688    1.000
    N1825    N        0.27879    0.09838    0.98837    1.000
    Si1826   Si       0.43888    0.03397    0.95235    1.000
    N1827    N        0.45879    0.05768    0.98515    1.000
    N1828    N        0.39407    0.06634    0.98692    1.000
    Si1829   Si       0.38053    0.02707    0.99366    1.000
    N1830    N        0.37509    0.13331    0.98827    1.000
    N1831    N        0.29624    0.15000    0.94528    1.000
    N1832    N        0.24252    0.20441    0.95179    1.000
    Si1833   Si       0.41833    0.21026    0.98487    1.000
    Si1834   Si       0.39136    0.15036    0.95169    1.000
    Si1835   Si       0.46284    0.14473    0.96654    1.000
    N1836    N        0.42730    0.17133    0.96115    1.000
    N1837    N        0.40952    0.23284    0.94538    1.000
    Si1838   Si       0.30345    0.36783    0.03135    1.000
    N1839    N        0.35214    0.27616    0.02788    1.000
    N1840    N        0.26842    0.35439    0.00761    1.000
    N1841    N        0.31713    0.33397    0.05207    1.000
    N1842    N        0.45382    0.31714    0.03992    1.000
    Si1843   Si       0.43266    0.30017    0.00547    1.000
    Si1844   Si       0.39876    0.36542    0.00265    1.000
    N1845    N        0.44067    0.37290    0.00961    1.000
    Si1846   Si       0.45017    0.36051    0.04909    1.000
    N1847    N        0.42212    0.25813    0.01250    1.000
    N1848    N        0.39603    0.32296    0.00221    1.000
    N1849    N        0.48547    0.25698    0.04897    1.000
    Si1850   Si       0.33400    0.48133    0.00503    1.000
    N1851    N        0.31959    0.49304    0.04431    1.000
    Si1852   Si       0.35940    0.41350    0.00913    1.000
    N1853    N        0.31872    0.39740    0.00673    1.000
    Si1854   Si       0.24178    0.46242    0.01480    1.000
    N1855    N        0.24196    0.50523    0.01346    1.000
    N1856    N        0.37780    0.38312    0.03739    1.000
    N1857    N        0.42995    0.47664    0.00110    1.000
    N1858    N        0.36669    0.45084    0.02995    1.000
    Si1859   Si       0.46939    0.47643    0.01691    1.000
    N1860    N        0.48572    0.43408    0.00727    1.000
    Si1861   Si       0.39604    0.48496    0.02733    1.000
    N1862    N        0.46347    0.50254    0.05096    1.000
    N1863    N        0.48636    0.38649    0.05587    1.000
    Si1864   Si       0.31964    0.34309    0.09448    1.000
    N1865    N        0.34124    0.30484    0.10199    1.000
    N1866    N        0.29510    0.26474    0.06323    1.000
    N1867    N        0.34771    0.37805    0.10056    1.000
    Si1868   Si       0.32799    0.29227    0.06058    1.000
    N1869    N        0.27914    0.34698    0.11322    1.000
    N1870    N        0.42477    0.36158    0.08576    1.000
    Si1871   Si       0.47496    0.29539    0.06923    1.000
    N1872    N        0.45778    0.28194    0.10751    1.000
    N1873    N        0.39409    0.26192    0.11154    1.000
    N1874    N        0.28818    0.39184    0.06275    1.000
    Si1875   Si       0.26361    0.38772    0.09911    1.000
    N1876    N        0.32931    0.44841    0.09227    1.000
    Si1877   Si       0.29493    0.47357    0.07590    1.000
    N1878    N        0.27071    0.50147    0.10484    1.000
    N1879    N        0.26086    0.45669    0.05642    1.000
    Si1880   Si       0.38608    0.38401    0.08113    1.000
    N1881    N        0.39519    0.42667    0.09160    1.000
    Si1882   Si       0.37025    0.45419    0.07392    1.000
    N1883    N        0.38853    0.49514    0.06828    1.000
    Si1884   Si       0.46751    0.48802    0.09185    1.000
    N1885    N        0.46276    0.44519    0.09944    1.000
    Si1886   Si       0.26159    0.32249    0.14409    1.000
    N1887    N        0.35957    0.28433    0.16623    1.000
    N1888    N        0.24285    0.28684    0.12632    1.000
    N1889    N        0.29289    0.30967    0.16945    1.000
    Si1890   Si       0.37449    0.29694    0.12777    1.000
    Si1891   Si       0.46985    0.29876    0.14704    1.000
    N1892    N        0.39672    0.33094    0.14660    1.000
    N1893    N        0.46246    0.34145    0.15167    1.000
    Si1894   Si       0.42821    0.35538    0.13000    1.000
    Si1895   Si       0.35154    0.45981    0.15754    1.000
    N1896    N        0.30854    0.47569    0.15161    1.000
    N1897    N        0.27967    0.41613    0.12547    1.000
    Si1898   Si       0.27389    0.44990    0.15303    1.000
    N1899    N        0.34446    0.41683    0.15653    1.000
    Si1900   Si       0.32417    0.41213    0.11720    1.000
    N1901    N        0.42734    0.39710    0.14309    1.000
    Si1902   Si       0.42655    0.43505    0.11952    1.000
    Si1903   Si       0.42031    0.49727    0.15028    1.000
    N1904    N        0.37870    0.48563    0.13466    1.000
    N1905    N        0.43076    0.45725    0.16051    1.000
    Si1906   Si       0.30805    0.33281    0.20125    1.000
    N1907    N        0.34636    0.35162    0.19002    1.000
    N1908    N        0.27953    0.36245    0.21769    1.000
    Si1909   Si       0.23814    0.35829    0.20484    1.000
    N1910    N        0.44657    0.28182    0.18236    1.000
    Si1911   Si       0.38035    0.32400    0.18635    1.000
    Si1912   Si       0.44698    0.31049    0.21519    1.000
    N1913    N        0.47098    0.34559    0.21842    1.000
    N1914    N        0.40663    0.32604    0.22213    1.000
    Si1915   Si       0.48423    0.36667    0.18134    1.000
    Si1916   Si       0.31485    0.44883    0.21310    1.000
    N1917    N        0.27718    0.43614    0.19508    1.000
    N1918    N        0.35143    0.46904    0.19914    1.000
    Si1919   Si       0.35455    0.39386    0.19311    1.000
    N1920    N        0.33034    0.40964    0.22685    1.000
    Si1921   Si       0.24640    0.42859    0.22516    1.000
    N1922    N        0.39476    0.40488    0.20343    1.000
    N1923    N        0.43869    0.44657    0.23203    1.000
    Si1924   Si       0.43292    0.41922    0.18201    1.000
    Si1925   Si       0.47940    0.43143    0.22961    1.000
    N1926    N        0.47282    0.40633    0.19370    1.000
    Si1927   Si       0.27224    0.33065    0.25763    1.000
    N1928    N        0.29555    0.36282    0.28067    1.000
    Si1929   Si       0.35765    0.28933    0.27974    1.000
    N1930    N        0.36227    0.33287    0.27723    1.000
    N1931    N        0.30222    0.30625    0.23506    1.000
    Si1932   Si       0.30914    0.26265    0.23278    1.000
    N1933    N        0.35025    0.25859    0.24546    1.000
    N1934    N        0.25732    0.30752    0.29096    1.000
    N1935    N        0.46506    0.28643    0.24649    1.000
    Si1936   Si       0.40081    0.34684    0.26160    1.000
    Si1937   Si       0.46301    0.30685    0.28549    1.000
    N1938    N        0.49306    0.33705    0.28474    1.000
    N1939    N        0.39667    0.27088    0.28449    1.000
    N1940    N        0.30286    0.48071    0.24237    1.000
    Si1941   Si       0.29891    0.38961    0.24710    1.000
    N1942    N        0.27148    0.42063    0.26456    1.000
    Si1943   Si       0.28423    0.46041    0.27711    1.000
    Si1944   Si       0.36091    0.49352    0.23142    1.000
    N1945    N        0.25079    0.48116    0.29275    1.000
    Si1946   Si       0.40031    0.42443    0.24186    1.000
    N1947    N        0.48669    0.40751    0.26461    1.000
    N1948    N        0.40169    0.39063    0.26824    1.000
    N1949    N        0.37730    0.45975    0.25783    1.000
    Si1950   Si       0.43034    0.48773    0.24750    1.000
    N1951    N        0.43388    0.48058    0.28856    1.000
    N1952    N        0.33209    0.27871    0.31154    1.000
    Si1953   Si       0.33237    0.35601    0.30113    1.000
    Si1954   Si       0.25466    0.32591    0.33072    1.000
    N1955    N        0.26408    0.36775    0.34168    1.000
    N1956    N        0.32989    0.34004    0.34137    1.000
    Si1957   Si       0.42340    0.34218    0.33366    1.000
    N1958    N        0.45995    0.27235    0.31131    1.000
    Si1959   Si       0.41727    0.27574    0.32264    1.000
    N1960    N        0.41434    0.38329    0.34036    1.000
    N1961    N        0.42851    0.33076    0.29192    1.000
    N1962    N        0.46523    0.33959    0.34656    1.000
    N1963    N        0.24087    0.42194    0.32664    1.000
    Si1964   Si       0.32801    0.50493    0.31256    1.000
    N1965    N        0.31520    0.46124    0.30878    1.000
    Si1966   Si       0.33998    0.43472    0.33549    1.000
    N1967    N        0.34790    0.39648    0.30907    1.000
    Si1968   Si       0.26082    0.39003    0.30205    1.000
    Si1969   Si       0.39134    0.47353    0.29680    1.000
    Si1970   Si       0.45772    0.48702    0.32388    1.000
    N1971    N        0.37333    0.51064    0.31290    1.000
    N1972    N        0.38502    0.44270    0.32725    1.000
    Si1973   Si       0.39093    0.40330    0.30983    1.000
    N1974    N        0.42508    0.48962    0.35255    1.000
    N1975    N        0.34700    0.27623    0.38037    1.000
    Si1976   Si       0.30144    0.36779    0.36236    1.000
    N1977    N        0.28044    0.30147    0.35707    1.000
    N1978    N        0.30979    0.35816    0.40379    1.000
    Si1979   Si       0.27043    0.26345    0.37474    1.000
    Si1980   Si       0.32445    0.29844    0.34907    1.000
    N1981    N        0.42471    0.26770    0.40043    1.000
    Si1982   Si       0.47165    0.34312    0.38962    1.000
    Si1983   Si       0.39076    0.29321    0.38877    1.000
    N1984    N        0.40231    0.30857    0.35047    1.000
    Si1985   Si       0.31045    0.44846    0.39478    1.000
    N1986    N        0.26906    0.43607    0.39508    1.000
    N1987    N        0.34591    0.46503    0.36964    1.000
    N1988    N        0.32155    0.40859    0.36871    1.000
    Si1989   Si       0.34068    0.39108    0.40743    1.000
    Si1990   Si       0.41501    0.39589    0.38322    1.000
    N1991    N        0.40789    0.43864    0.39515    1.000
    N1992    N        0.45450    0.38326    0.39620    1.000
    Si1993   Si       0.38950    0.46693    0.36564    1.000
    Si1994   Si       0.30742    0.34848    0.44493    1.000
    N1995    N        0.31179    0.30620    0.45437    1.000
    Si1996   Si       0.35334    0.28732    0.45687    1.000
    N1997    N        0.27662    0.37537    0.45564    1.000
    N1998    N        0.34641    0.36474    0.46030    1.000
    Si1999   Si       0.27610    0.28456    0.46582    1.000
    Si2000   Si       0.46434    0.27880    0.41642    1.000
    N2001    N        0.37801    0.31175    0.42747    1.000
    N2002    N        0.45838    0.31994    0.42465    1.000
    Si2003   Si       0.38595    0.35261    0.44110    1.000
    N2004    N        0.38202    0.37661    0.40660    1.000
    Si2005   Si       0.26379    0.40438    0.42421    1.000
    Si2006   Si       0.28133    0.49981    0.44229    1.000
    N2007    N        0.32591    0.42559    0.43023    1.000
    N2008    N        0.30823    0.48788    0.41238    1.000
    N2009    N        0.41193    0.48881    0.44751    1.000
    Si2010   Si       0.42607    0.45242    0.43138    1.000
    Si2011   Si       0.48354    0.40963    0.41565    1.000
    N2012    N        0.46747    0.45164    0.42008    1.000
    N2013    N        0.26493    0.30121    0.50383    1.000
    N2014    N        0.24512    0.35778    0.51407    1.000
    Si2015   Si       0.34177    0.37955    0.49980    1.000
    N2016    N        0.31997    0.34768    0.52365    1.000
    N2017    N        0.36715    0.29523    0.49661    1.000
    N2018    N        0.43431    0.28770    0.48612    1.000
    Si2019   Si       0.41580    0.37421    0.50618    1.000
    Si2020   Si       0.40691    0.29835    0.51601    1.000
    N2021    N        0.48637    0.33058    0.48903    1.000
    N2022    N        0.42051    0.35636    0.46656    1.000
    Si2023   Si       0.45039    0.32608    0.46539    1.000
    Si2024   Si       0.24616    0.45810    0.47778    1.000
    N2025    N        0.25085    0.42524    0.51324    1.000
    N2026    N        0.31400    0.41594    0.50377    1.000
    Si2027   Si       0.32252    0.44443    0.47157    1.000
    N2028    N        0.28765    0.46959    0.47246    1.000
    N2029    N        0.36330    0.46064    0.48045    1.000
    Si2030   Si       0.24438    0.38932    0.48261    1.000
    N2031    N        0.37991    0.39993    0.50951    1.000
    N2032    N        0.44986    0.39574    0.52086    1.000
    N2033    N        0.41771    0.46471    0.52339    1.000
    N2034    N        0.48316    0.45011    0.49661    1.000
    Si2035   Si       0.39682    0.43764    0.49654    1.000
    Si2036   Si       0.46437    0.41343    0.48361    1.000
    Si2037   Si       0.38281    0.50340    0.48035    1.000
    N2038    N        0.42551    0.42507    0.46455    1.000
    N2039    N        0.27595    0.31818    0.56963    1.000
    Si2040   Si       0.27497    0.28287    0.54202    1.000
    Si2041   Si       0.28067    0.35143    0.53967    1.000
    N2042    N        0.31765    0.27200    0.53846    1.000
    Si2043   Si       0.33990    0.30805    0.53018    1.000
    N2044    N        0.36194    0.31109    0.56886    1.000
    Si2045   Si       0.40316    0.32623    0.57127    1.000
    N2046    N        0.42427    0.28877    0.55904    1.000
    N2047    N        0.40880    0.34071    0.53078    1.000
    Si2048   Si       0.45905    0.27416    0.58302    1.000
    N2049    N        0.28081    0.39062    0.56600    1.000
    N2050    N        0.30356    0.45890    0.55671    1.000
    Si2051   Si       0.28865    0.42317    0.53696    1.000
    Si2052   Si       0.28963    0.49810    0.57379    1.000
    N2053    N        0.24757    0.50012    0.58017    1.000
    Si2054   Si       0.39335    0.49189    0.54563    1.000
    N2055    N        0.37584    0.46396    0.57624    1.000
    Si2056   Si       0.45912    0.40407    0.56483    1.000
    N2057    N        0.47173    0.44786    0.56578    1.000
    Si2058   Si       0.46130    0.46808    0.52890    1.000
    Si2059   Si       0.29374    0.31341    0.60982    1.000
    N2060    N        0.31074    0.34952    0.62095    1.000
    N2061    N        0.32225    0.27848    0.61199    1.000
    Si2062   Si       0.36049    0.27651    0.59235    1.000
    Si2063   Si       0.41966    0.30537    0.63107    1.000
    N2064    N        0.39091    0.27352    0.62542    1.000
    N2065    N        0.41319    0.34377    0.60839    1.000
    N2066    N        0.46204    0.29595    0.62126    1.000
    Si2067   Si       0.40763    0.38307    0.62714    1.000
    Si2068   Si       0.30017    0.38987    0.60669    1.000
    N2069    N        0.32877    0.42011    0.61078    1.000
    N2070    N        0.32220    0.49664    0.60743    1.000
    N2071    N        0.26256    0.40344    0.62598    1.000
    Si2072   Si       0.33400    0.45720    0.58761    1.000
    N2073    N        0.43816    0.47050    0.61905    1.000
    Si2074   Si       0.47811    0.45503    0.60761    1.000
    Si2075   Si       0.40638    0.44676    0.60321    1.000
    N2076    N        0.42500    0.40884    0.59223    1.000
    N2077    N        0.38927    0.43292    0.63985    1.000
    Si2078   Si       0.32939    0.35480    0.65950    1.000
    N2079    N        0.32419    0.31958    0.68598    1.000
    Si2080   Si       0.28345    0.29968    0.68305    1.000
    N2081    N        0.30279    0.25882    0.68713    1.000
    N2082    N        0.27049    0.29790    0.64271    1.000
    N2083    N        0.37378    0.27154    0.69215    1.000
    N2084    N        0.42045    0.32079    0.67108    1.000
    Si2085   Si       0.44779    0.35390    0.67622    1.000
    N2086    N        0.48552    0.35489    0.65576    1.000
    N2087    N        0.36667    0.37521    0.64564    1.000
    N2088    N        0.31638    0.39572    0.67426    1.000
    N2089    N        0.33769    0.46035    0.66862    1.000
    N2090    N        0.26880    0.44497    0.69206    1.000
    Si2091   Si       0.31812    0.49660    0.65157    1.000
    Si2092   Si       0.34761    0.41965    0.64942    1.000
    Si2093   Si       0.24614    0.43063    0.65611    1.000
    N2094    N        0.43134    0.47656    0.68185    1.000
    N2095    N        0.43473    0.39270    0.66321    1.000
    Si2096   Si       0.41862    0.43346    0.67433    1.000
    Si2097   Si       0.45512    0.50059    0.65027    1.000
    Si2098   Si       0.26252    0.34816    0.73950    1.000
    N2099    N        0.33821    0.28160    0.75220    1.000
    N2100    N        0.25917    0.31273    0.71362    1.000
    Si2101   Si       0.33563    0.28105    0.70882    1.000
    Si2102   Si       0.43486    0.34220    0.75348    1.000
    N2103    N        0.45710    0.34922    0.71856    1.000
    N2104    N        0.39948    0.31851    0.73889    1.000
    N2105    N        0.43544    0.26444    0.71726    1.000
    Si2106   Si       0.40786    0.29533    0.70357    1.000
    Si2107   Si       0.43900    0.27316    0.75917    1.000
    N2108    N        0.26275    0.38754    0.72107    1.000
    Si2109   Si       0.35734    0.45007    0.70843    1.000
    Si2110   Si       0.25309    0.47605    0.71859    1.000
    N2111    N        0.32676    0.42742    0.73197    1.000
    Si2112   Si       0.29574    0.41239    0.70699    1.000
    N2113    N        0.27650    0.50170    0.74316    1.000
    N2114    N        0.43840    0.51075    0.74130    1.000
    Si2115   Si       0.40752    0.41887    0.75076    1.000
    N2116    N        0.37088    0.48788    0.72267    1.000
    N2117    N        0.39398    0.42665    0.70955    1.000
    Si2118   Si       0.40992    0.50133    0.71157    1.000
    Si2119   Si       0.31632    0.34672    0.80168    1.000
    N2120    N        0.35854    0.33003    0.80023    1.000
    N2121    N        0.29608    0.34195    0.76448    1.000
    N2122    N        0.45628    0.31139    0.77554    1.000
    N2123    N        0.40275    0.26985    0.78171    1.000
    Si2124   Si       0.37229    0.30202    0.77029    1.000
    Si2125   Si       0.47752    0.30741    0.81258    1.000
    N2126    N        0.42204    0.38150    0.76650    1.000
    N2127    N        0.25125    0.47677    0.80170    1.000
    N2128    N        0.32226    0.39118    0.79938    1.000
    Si2129   Si       0.28733    0.49154    0.78475    1.000
    N2130    N        0.31438    0.45884    0.79259    1.000
    Si2131   Si       0.33490    0.42539    0.77309    1.000
    Si2132   Si       0.43599    0.48742    0.77700    1.000
    N2133    N        0.37681    0.42942    0.77985    1.000
    N2134    N        0.43943    0.44493    0.76049    1.000
    N2135    N        0.46932    0.49590    0.80284    1.000
    Si2136   Si       0.47659    0.42331    0.76740    1.000
    N2137    N        0.48237    0.41859    0.81156    1.000
    N2138    N        0.40324    0.48817    0.80701    1.000
    Si2139   Si       0.38685    0.44693    0.81843    1.000
    Si2140   Si       0.31250    0.29348    0.86397    1.000
    N2141    N        0.29641    0.32126    0.83245    1.000
    Si2142   Si       0.25290    0.32856    0.84101    1.000
    N2143    N        0.35417    0.37551    0.85744    1.000
    N2144    N        0.35583    0.30119    0.86200    1.000
    N2145    N        0.24826    0.30300    0.87534    1.000
    N2146    N        0.24270    0.37085    0.82819    1.000
    Si2147   Si       0.36988    0.33699    0.84119    1.000
    N2148    N        0.41020    0.34727    0.85462    1.000
    N2149    N        0.45658    0.29044    0.84568    1.000
    Si2150   Si       0.43376    0.31524    0.87314    1.000
    Si2151   Si       0.37977    0.26786    0.87466    1.000
    Si2152   Si       0.48654    0.35968    0.87143    1.000
    Si2153   Si       0.24898    0.40112    0.85786    1.000
    N2154    N        0.29153    0.40640    0.86673    1.000
    N2155    N        0.34896    0.44377    0.84072    1.000
    Si2156   Si       0.32734    0.48282    0.83235    1.000
    Si2157   Si       0.32914    0.40656    0.84153    1.000
    N2158    N        0.28951    0.48028    0.85664    1.000
    Si2159   Si       0.24284    0.48038    0.84576    1.000
    N2160    N        0.35741    0.50834    0.85641    1.000
    N2161    N        0.43361    0.50556    0.86505    1.000
    Si2162   Si       0.41674    0.38940    0.86672    1.000
    Si2163   Si       0.47194    0.49758    0.84547    1.000
    N2164    N        0.41788    0.42489    0.84049    1.000
    Si2165   Si       0.46241    0.42892    0.84685    1.000
    N2166    N        0.48584    0.46029    0.86545    1.000
    N2167    N        0.46211    0.39409    0.87105    1.000
    Si2168   Si       0.26440    0.30009    0.91423    1.000
    N2169    N        0.30729    0.29721    0.90857    1.000
    N2170    N        0.34848    0.35160    0.92025    1.000
    Si2171   Si       0.33831    0.31268    0.93534    1.000
    Si2172   Si       0.25184    0.37382    0.93607    1.000
    N2173    N        0.46521    0.33237    0.89809    1.000
    N2174    N        0.41787    0.27976    0.89513    1.000
    Si2175   Si       0.47673    0.30678    0.93260    1.000
    N2176    N        0.48297    0.26826    0.91153    1.000
    Si2177   Si       0.45511    0.25933    0.87937    1.000
    Si2178   Si       0.36015    0.38692    0.90150    1.000
    N2179    N        0.35061    0.50181    0.93030    1.000
    Si2180   Si       0.29794    0.42135    0.90638    1.000
    N2181    N        0.34165    0.42464    0.91212    1.000
    Si2182   Si       0.28013    0.49459    0.89746    1.000
    N2183    N        0.27845    0.45742    0.91855    1.000
    Si2184   Si       0.35451    0.45896    0.93725    1.000
    N2185    N        0.46614    0.48034    0.93272    1.000
    N2186    N        0.40198    0.39904    0.90608    1.000
    Si2187   Si       0.44339    0.50724    0.90795    1.000
    N2188    N        0.32537    0.32046    0.97699    1.000
    Si2189   Si       0.28333    0.32189    0.98299    1.000
    N2190    N        0.26460    0.33256    0.94324    1.000
    N2191    N        0.27071    0.28231    0.99316    1.000
    Si2192   Si       0.36227    0.30065    0.99275    1.000
    N2193    N        0.44568    0.29559    0.96341    1.000
    N2194    N        0.37273    0.29082    0.94965    1.000
    Si2195   Si       0.41190    0.27564    0.93961    1.000
    Si2196   Si       0.25529    0.46751    0.95234    1.000
    N2197    N        0.33307    0.44933    0.97407    1.000
    Si2198   Si       0.30020    0.42160    0.97594    1.000
    N2199    N        0.27007    0.44842    0.98782    1.000
    N2200    N        0.28665    0.39859    0.94219    1.000
    Si2201   Si       0.40928    0.49220    0.96620    1.000
    N2202    N        0.38429    0.39684    0.97622    1.000
    Si2203   Si       0.47011    0.39705    0.98996    1.000
    N2204    N        0.37650    0.50592    0.99349    1.000
    N2205    N        0.45156    0.41424    0.95668    1.000
    Si2206   Si       0.48000    0.44930    0.95941    1.000
    Si2207   Si       0.41032    0.41560    0.94594    1.000
    N2208    N        0.39698    0.45682    0.94394    1.000
    Si2209   Si       0.28223    0.59178    0.02557    1.000
    N2210    N        0.31714    0.61403    0.00951    1.000
    N2211    N        0.35931    0.56518    0.03910    1.000
    Si2212   Si       0.35446    0.59270    0.00499    1.000
    N2213    N        0.25951    0.61744    0.05381    1.000
    N2214    N        0.29162    0.55804    0.05449    1.000
    Si2215   Si       0.32941    0.53660    0.05478    1.000
    Si2216   Si       0.46738    0.54700    0.04869    1.000
    Si2217   Si       0.42927    0.59840    0.00767    1.000
    N2218    N        0.42937    0.56770    0.03850    1.000
    N2219    N        0.39163    0.61851    0.00876    1.000
    N2220    N        0.46549    0.62474    0.00898    1.000
    N2221    N        0.35688    0.67012    0.03687    1.000
    Si2222   Si       0.24544    0.69681    0.00725    1.000
    Si2223   Si       0.32155    0.65779    0.01201    1.000
    N2224    N        0.28275    0.67707    0.02217    1.000
    Si2225   Si       0.32113    0.75551    0.02864    1.000
    Si2226   Si       0.39403    0.64815    0.03947    1.000
    N2227    N        0.39249    0.73398    0.05692    1.000
    N2228    N        0.42721    0.67495    0.04112    1.000
    N2229    N        0.45981    0.73438    0.04184    1.000
    Si2230   Si       0.46016    0.66912    0.01422    1.000
    Si2231   Si       0.26323    0.54020    0.08566    1.000
    N2232    N        0.33325    0.52428    0.09854    1.000
    N2233    N        0.25128    0.57121    0.11362    1.000
    Si2234   Si       0.23936    0.60497    0.08914    1.000
    N2235    N        0.39819    0.62050    0.07341    1.000
    N2236    N        0.39174    0.55642    0.09883    1.000
    Si2237   Si       0.37589    0.51688    0.10449    1.000
    Si2238   Si       0.39424    0.57858    0.06211    1.000
    N2239    N        0.48779    0.56945    0.08158    1.000
    N2240    N        0.28553    0.67316    0.09189    1.000
    Si2241   Si       0.29508    0.71580    0.09130    1.000
    N2242    N        0.25885    0.73929    0.09328    1.000
    Si2243   Si       0.36053    0.70427    0.06370    1.000
    N2244    N        0.32225    0.72424    0.05724    1.000
    Si2245   Si       0.26335    0.66179    0.05858    1.000
    N2246    N        0.37222    0.68256    0.10062    1.000
    N2247    N        0.44162    0.72074    0.10826    1.000
    Si2248   Si       0.39245    0.64435    0.10785    1.000
    Si2249   Si       0.42991    0.71624    0.06633    1.000
    Si2250   Si       0.46862    0.75564    0.11040    1.000
    Si2251   Si       0.27400    0.58125    0.14942    1.000
    N2252    N        0.29370    0.61858    0.13579    1.000
    Si2253   Si       0.33364    0.62280    0.15324    1.000
    N2254    N        0.29831    0.54582    0.15753    1.000
    Si2255   Si       0.30552    0.51377    0.13040    1.000
    N2256    N        0.37057    0.54736    0.16053    1.000
    N2257    N        0.36986    0.61300    0.13024    1.000
    N2258    N        0.43372    0.58799    0.14513    1.000
    Si2259   Si       0.39153    0.57731    0.13824    1.000
    Si2260   Si       0.45398    0.54927    0.14564    1.000
    N2261    N        0.44607    0.51396    0.11881    1.000
    Si2262   Si       0.44415    0.62946    0.15913    1.000
    N2263    N        0.48670    0.63437    0.15681    1.000
    Si2264   Si       0.35153    0.69771    0.13864    1.000
    Si2265   Si       0.27052    0.65571    0.12844    1.000
    N2266    N        0.32100    0.72344    0.12568    1.000
    N2267    N        0.27638    0.68479    0.16183    1.000
    N2268    N        0.33963    0.66451    0.16039    1.000
    N2269    N        0.38575    0.72189    0.15756    1.000
    Si2270   Si       0.42432    0.70280    0.14509    1.000
    N2271    N        0.42334    0.65902    0.13577    1.000
    N2272    N        0.48409    0.75826    0.15089    1.000
    N2273    N        0.32720    0.59482    0.18742    1.000
    N2274    N        0.25906    0.59423    0.19046    1.000
    Si2275   Si       0.29491    0.60620    0.21352    1.000
    N2276    N        0.33889    0.53383    0.22186    1.000
    Si2277   Si       0.33315    0.55399    0.18111    1.000
    Si2278   Si       0.43577    0.54208    0.21913    1.000
    N2279    N        0.41040    0.57819    0.22585    1.000
    N2280    N        0.43744    0.52582    0.17906    1.000
    Si2281   Si       0.31207    0.68004    0.18799    1.000
    N2282    N        0.26812    0.71011    0.22374    1.000
    N2283    N        0.33289    0.71654    0.20175    1.000
    N2284    N        0.30152    0.64855    0.21778    1.000
    Si2285   Si       0.25646    0.71812    0.18217    1.000
    Si2286   Si       0.36265    0.74611    0.18828    1.000
    Si2287   Si       0.45608    0.67696    0.21136    1.000
    N2288    N        0.43229    0.64177    0.20067    1.000
    N2289    N        0.45384    0.70272    0.17588    1.000
    N2290    N        0.28790    0.58779    0.25202    1.000
    Si2291   Si       0.29899    0.52381    0.24346    1.000
    N2292    N        0.25315    0.53232    0.24619    1.000
    Si2293   Si       0.24653    0.57554    0.25879    1.000
    N2294    N        0.31095    0.53310    0.28290    1.000
    Si2295   Si       0.31824    0.57854    0.28327    1.000
    N2296    N        0.35924    0.57958    0.27140    1.000
    Si2297   Si       0.36916    0.61935    0.28411    1.000
    N2298    N        0.45982    0.61175    0.25339    1.000
    N2299    N        0.39948    0.51790    0.23758    1.000
    Si2300   Si       0.37559    0.55573    0.23927    1.000
    N2301    N        0.46308    0.51762    0.24130    1.000
    Si2302   Si       0.42075    0.61794    0.23540    1.000
    N2303    N        0.32605    0.63050    0.28566    1.000
    Si2304   Si       0.29872    0.65512    0.26214    1.000
    N2305    N        0.25808    0.66022    0.27578    1.000
    N2306    N        0.31549    0.69369    0.26979    1.000
    Si2307   Si       0.30717    0.72186    0.23886    1.000
    N2308    N        0.44210    0.69685    0.24913    1.000
    Si2309   Si       0.47105    0.72788    0.26282    1.000
    Si2310   Si       0.40276    0.68642    0.26901    1.000
    N2311    N        0.38333    0.72657    0.26811    1.000
    N2312    N        0.39309    0.64469    0.25798    1.000
    N2313    N        0.31697    0.58450    0.32788    1.000
    Si2314   Si       0.32767    0.62759    0.33300    1.000
    N2315    N        0.30973    0.51611    0.34991    1.000
    N2316    N        0.37500    0.62168    0.32627    1.000
    N2317    N        0.47419    0.52834    0.32271    1.000
    N2318    N        0.47944    0.59974    0.33038    1.000
    N2319    N        0.42111    0.56381    0.34435    1.000
    Si2320   Si       0.39955    0.52563    0.34498    1.000
    Si2321   Si       0.46353    0.56296    0.34555    1.000
    N2322    N        0.26718    0.63693    0.34274    1.000
    N2323    N        0.27869    0.70920    0.32639    1.000
    Si2324   Si       0.25497    0.74292    0.31400    1.000
    N2325    N        0.34067    0.73790    0.31751    1.000
    Si2326   Si       0.31806    0.70167    0.31341    1.000
    N2327    N        0.34081    0.67296    0.33774    1.000
    Si2328   Si       0.23953    0.63675    0.30853    1.000
    Si2329   Si       0.38366    0.73284    0.31105    1.000
    Si2330   Si       0.44378    0.70226    0.32602    1.000
    N2331    N        0.45799    0.73727    0.30279    1.000
    N2332    N        0.47492    0.67269    0.32274    1.000
    Si2333   Si       0.38789    0.66205    0.34327    1.000
    Si2334   Si       0.46649    0.63781    0.34660    1.000
    N2335    N        0.40399    0.69184    0.31464    1.000
    N2336    N        0.25769    0.56365    0.36504    1.000
    Si2337   Si       0.24916    0.60623    0.37018    1.000
    Si2338   Si       0.29827    0.55638    0.35644    1.000
    N2339    N        0.31993    0.55461    0.39388    1.000
    N2340    N        0.32800    0.62861    0.37746    1.000
    Si2341   Si       0.33597    0.59454    0.39999    1.000
    Si2342   Si       0.33415    0.51000    0.38549    1.000
    N2343    N        0.37956    0.58637    0.39382    1.000
    N2344    N        0.37653    0.51975    0.38266    1.000
    N2345    N        0.48094    0.55971    0.38656    1.000
    Si2346   Si       0.39867    0.60001    0.35717    1.000
    Si2347   Si       0.33609    0.67069    0.38211    1.000
    N2348    N        0.29640    0.68755    0.38739    1.000
    Si2349   Si       0.26660    0.67912    0.35686    1.000
    Si2350   Si       0.33001    0.76196    0.40516    1.000
    N2351    N        0.48047    0.65681    0.38396    1.000
    N2352    N        0.43730    0.71651    0.36846    1.000
    N2353    N        0.36750    0.75250    0.38471    1.000
    Si2354   Si       0.47450    0.73959    0.37755    1.000
    N2355    N        0.42505    0.63810    0.35929    1.000
    Si2356   Si       0.44081    0.65190    0.39751    1.000
    Si2357   Si       0.39817    0.72092    0.39056    1.000
    N2358    N        0.37964    0.68153    0.38624    1.000
    N2359    N        0.33373    0.60325    0.44261    1.000
    N2360    N        0.28789    0.53974    0.45734    1.000
    Si2361   Si       0.32691    0.56121    0.45891    1.000
    N2362    N        0.25117    0.61869    0.41219    1.000
    N2363    N        0.36414    0.53672    0.45257    1.000
    Si2364   Si       0.38450    0.54651    0.41544    1.000
    N2365    N        0.42669    0.54964    0.42724    1.000
    Si2366   Si       0.45987    0.57733    0.42127    1.000
    N2367    N        0.44098    0.61491    0.41971    1.000
    Si2368   Si       0.44090    0.52088    0.45828    1.000
    N2369    N        0.48199    0.51258    0.45454    1.000
    N2370    N        0.48040    0.57858    0.46115    1.000
    Si2371   Si       0.25017    0.63353    0.45162    1.000
    N2372    N        0.33782    0.67344    0.43324    1.000
    N2373    N        0.31121    0.73545    0.43570    1.000
    Si2374   Si       0.29962    0.69523    0.42920    1.000
    N2375    N        0.26656    0.67618    0.45191    1.000
    Si2376   Si       0.34397    0.64119    0.46209    1.000
    N2377    N        0.23918    0.74277    0.46600    1.000
    N2378    N        0.43165    0.67602    0.43159    1.000
    Si2379   Si       0.38308    0.68283    0.43404    1.000
    N2380    N        0.39708    0.72533    0.43477    1.000
    Si2381   Si       0.42599    0.63746    0.45541    1.000
    N2382    N        0.46787    0.74575    0.42036    1.000
    Si2383   Si       0.44322    0.71629    0.44153    1.000
    N2384    N        0.32823    0.57507    0.50089    1.000
    Si2385   Si       0.30392    0.60951    0.50835    1.000
    Si2386   Si       0.25683    0.56413    0.47713    1.000
    N2387    N        0.27027    0.60663    0.48068    1.000
    N2388    N        0.24462    0.55143    0.51731    1.000
    N2389    N        0.36411    0.51285    0.52281    1.000
    N2390    N        0.42009    0.52839    0.49510    1.000
    Si2391   Si       0.47435    0.60146    0.49894    1.000
    N2392    N        0.43828    0.62793    0.49436    1.000
    N2393    N        0.32226    0.64839    0.49876    1.000
    Si2394   Si       0.25459    0.70542    0.48221    1.000
    N2395    N        0.29404    0.71354    0.49921    1.000
    Si2396   Si       0.31721    0.74427    0.47868    1.000
    N2397    N        0.35939    0.74161    0.49108    1.000
    N2398    N        0.42161    0.75788    0.51507    1.000
    N2399    N        0.46512    0.71129    0.47809    1.000
    N2400    N        0.38590    0.65063    0.46840    1.000
    Si2401   Si       0.44657    0.72106    0.51607    1.000
    Si2402   Si       0.40391    0.65019    0.51058    1.000
    N2403    N        0.28527    0.60364    0.54716    1.000
    N2404    N        0.30215    0.53428    0.55526    1.000
    Si2405   Si       0.26838    0.56301    0.55179    1.000
    N2406    N        0.35554    0.56633    0.56537    1.000
    Si2407   Si       0.33835    0.54590    0.53049    1.000
    Si2408   Si       0.27187    0.63588    0.57198    1.000
    Si2409   Si       0.43892    0.60543    0.55769    1.000
    N2410    N        0.41652    0.52294    0.56307    1.000
    Si2411   Si       0.38044    0.60055    0.57643    1.000
    N2412    N        0.39836    0.62332    0.54519    1.000
    Si2413   Si       0.44213    0.53678    0.53209    1.000
    N2414    N        0.45597    0.57690    0.52968    1.000
    N2415    N        0.47573    0.50917    0.53227    1.000
    N2416    N        0.28233    0.67267    0.55162    1.000
    N2417    N        0.34733    0.69934    0.54860    1.000
    Si2418   Si       0.31303    0.68346    0.52548    1.000
    N2419    N        0.46456    0.63876    0.56038    1.000
    Si2420   Si       0.44523    0.67695    0.56017    1.000
    N2421    N        0.47207    0.71286    0.55013    1.000
    N2422    N        0.38681    0.74202    0.56437    1.000
    N2423    N        0.41569    0.68961    0.52617    1.000
    Si2424   Si       0.37981    0.72325    0.52534    1.000
    Si2425   Si       0.31887    0.60642    0.62379    1.000
    Si2426   Si       0.33753    0.53981    0.59784    1.000
    N2427    N        0.30907    0.56570    0.61804    1.000
    N2428    N        0.36004    0.61744    0.60935    1.000
    N2429    N        0.28481    0.63117    0.61235    1.000
    N2430    N        0.37415    0.53936    0.62314    1.000
    Si2431   Si       0.41119    0.54561    0.60095    1.000
    N2432    N        0.44166    0.53895    0.62931    1.000
    N2433    N        0.41866    0.58804    0.59174    1.000
    N2434    N        0.26095    0.73076    0.62997    1.000
    N2435    N        0.33423    0.75390    0.60399    1.000
    Si2436   Si       0.30368    0.74790    0.63610    1.000
    Si2437   Si       0.35925    0.72083    0.58850    1.000
    N2438    N        0.43597    0.69830    0.59565    1.000
    Si2439   Si       0.41413    0.69366    0.63247    1.000
    Si2440   Si       0.46308    0.73323    0.59018    1.000
    N2441    N        0.37257    0.69900    0.62306    1.000
    N2442    N        0.30818    0.60182    0.66537    1.000
    Si2443   Si       0.28781    0.56114    0.66074    1.000
    N2444    N        0.33428    0.53058    0.67614    1.000
    Si2445   Si       0.33625    0.61802    0.69338    1.000
    N2446    N        0.27765    0.51566    0.65748    1.000
    N2447    N        0.24871    0.58239    0.64830    1.000
    Si2448   Si       0.25868    0.62570    0.64670    1.000
    N2449    N        0.25032    0.63216    0.68962    1.000
    Si2450   Si       0.23543    0.59162    0.69936    1.000
    Si2451   Si       0.36935    0.55436    0.66294    1.000
    N2452    N        0.37378    0.59628    0.67623    1.000
    N2453    N        0.47414    0.52961    0.67983    1.000
    N2454    N        0.47253    0.60351    0.65842    1.000
    Si2455   Si       0.47379    0.56051    0.64763    1.000
    Si2456   Si       0.37974    0.62913    0.64617    1.000
    Si2457   Si       0.44577    0.63670    0.67048    1.000
    N2458    N        0.31632    0.71576    0.66352    1.000
    Si2459   Si       0.35382    0.69522    0.66120    1.000
    N2460    N        0.34983    0.65334    0.66930    1.000
    N2461    N        0.24963    0.70357    0.69635    1.000
    N2462    N        0.41655    0.65075    0.64281    1.000
    Si2463   Si       0.42242    0.72237    0.69608    1.000
    N2464    N        0.38260    0.71021    0.69050    1.000
    N2465    N        0.47878    0.66651    0.67495    1.000
    N2466    N        0.44243    0.71775    0.65856    1.000
    Si2467   Si       0.48446    0.70741    0.65539    1.000
    N2468    N        0.32709    0.54965    0.73958    1.000
    Si2469   Si       0.28415    0.54406    0.73949    1.000
    N2470    N        0.32750    0.62067    0.73415    1.000
    Si2471   Si       0.35124    0.52646    0.71473    1.000
    N2472    N        0.26680    0.56154    0.70485    1.000
    Si2473   Si       0.46720    0.53639    0.72210    1.000
    N2474    N        0.44908    0.57477    0.72482    1.000
    Si2475   Si       0.40661    0.58576    0.71476    1.000
    Si2476   Si       0.46194    0.60392    0.75359    1.000
    N2477    N        0.38790    0.58187    0.75454    1.000
    N2478    N        0.42310    0.62774    0.70709    1.000
    N2479    N        0.39210    0.54150    0.70127    1.000
    Si2480   Si       0.24096    0.74000    0.72571    1.000
    Si2481   Si       0.24228    0.66486    0.71699    1.000
    Si2482   Si       0.31038    0.65701    0.75223    1.000
    N2483    N        0.28612    0.74925    0.72338    1.000
    N2484    N        0.26639    0.66336    0.75218    1.000
    N2485    N        0.35398    0.74849    0.74032    1.000
    N2486    N        0.32212    0.68762    0.72362    1.000
    Si2487   Si       0.36096    0.70679    0.72847    1.000
    Si2488   Si       0.29383    0.70933    0.69917    1.000
    Si2489   Si       0.42330    0.66256    0.73463    1.000
    N2490    N        0.38785    0.68198    0.75062    1.000
    N2491    N        0.44544    0.69888    0.72585    1.000
    Si2492   Si       0.48621    0.68909    0.71341    1.000
    N2493    N        0.47816    0.75224    0.75097    1.000
    N2494    N        0.33277    0.58795    0.80106    1.000
    N2495    N        0.27222    0.56368    0.77641    1.000
    Si2496   Si       0.29867    0.56120    0.81068    1.000
    N2497    N        0.31062    0.52068    0.80803    1.000
    N2498    N        0.24933    0.62851    0.80538    1.000
    Si2499   Si       0.24141    0.59290    0.78069    1.000
    Si2500   Si       0.34426    0.58560    0.75932    1.000
    N2501    N        0.45125    0.58744    0.79351    1.000
    Si2502   Si       0.40590    0.58743    0.79604    1.000
    N2503    N        0.38433    0.62660    0.79929    1.000
    Si2504   Si       0.48701    0.59585    0.81726    1.000
    N2505    N        0.30504    0.75779    0.79261    1.000
    N2506    N        0.27366    0.69805    0.81173    1.000
    N2507    N        0.33481    0.67088    0.78916    1.000
    Si2508   Si       0.26760    0.73978    0.80395    1.000
    Si2509   Si       0.24676    0.67021    0.79154    1.000
    N2510    N        0.24160    0.74466    0.76952    1.000
    N2511    N        0.41331    0.74858    0.77710    1.000
    Si2512   Si       0.37934    0.66969    0.79072    1.000
    Si2513   Si       0.44772    0.72515    0.76369    1.000
    N2514    N        0.44670    0.64276    0.76394    1.000
    N2515    N        0.46680    0.70252    0.79711    1.000
    Si2516   Si       0.48155    0.66447    0.78359    1.000
    N2517    N        0.28485    0.57981    0.84738    1.000
    Si2518   Si       0.27323    0.62101    0.84253    1.000
    Si2519   Si       0.34654    0.62132    0.82208    1.000
    N2520    N        0.36813    0.61784    0.86244    1.000
    Si2521   Si       0.39909    0.51679    0.83986    1.000
    N2522    N        0.39973    0.56112    0.83147    1.000
    Si2523   Si       0.39207    0.58170    0.87105    1.000
    N2524    N        0.48478    0.59330    0.86052    1.000
    N2525    N        0.24835    0.75992    0.83582    1.000
    Si2526   Si       0.31291    0.68451    0.82354    1.000
    N2527    N        0.31308    0.64405    0.84331    1.000
    N2528    N        0.32434    0.71523    0.85380    1.000
    Si2529   Si       0.32791    0.75551    0.82987    1.000
    Si2530   Si       0.39318    0.65631    0.86088    1.000
    N2531    N        0.43844    0.74786    0.84644    1.000
    N2532    N        0.43309    0.64537    0.86656    1.000
    N2533    N        0.36887    0.74936    0.83011    1.000
    N2534    N        0.38857    0.68668    0.83099    1.000
    Si2535   Si       0.37064    0.71617    0.85923    1.000
    Si2536   Si       0.47418    0.73233    0.82864    1.000
    N2537    N        0.30822    0.60364    0.90562    1.000
    N2538    N        0.30048    0.53181    0.89605    1.000
    Si2539   Si       0.34425    0.52417    0.89433    1.000
    Si2540   Si       0.28322    0.57144    0.89006    1.000
    Si2541   Si       0.34570    0.59176    0.92756    1.000
    N2542    N        0.24911    0.57023    0.91706    1.000
    N2543    N        0.36405    0.56235    0.89841    1.000
    N2544    N        0.35906    0.63278    0.93081    1.000
    N2545    N        0.47354    0.53988    0.91615    1.000
    N2546    N        0.42762    0.58482    0.89632    1.000
    Si2547   Si       0.43764    0.56290    0.93389    1.000
    Si2548   Si       0.45739    0.61538    0.88597    1.000
    N2549    N        0.47626    0.62978    0.92226    1.000
    N2550    N        0.41736    0.52488    0.93921    1.000
    Si2551   Si       0.27778    0.63458    0.91407    1.000
    Si2552   Si       0.33681    0.64108    0.88425    1.000
    N2553    N        0.33238    0.72118    0.93072    1.000
    N2554    N        0.27314    0.73420    0.89816    1.000
    Si2555   Si       0.30804    0.70825    0.89469    1.000
    N2556    N        0.30428    0.66815    0.90655    1.000
    Si2557   Si       0.35573    0.67599    0.93448    1.000
    N2558    N        0.25122    0.63155    0.87828    1.000
    N2559    N        0.36396    0.67724    0.88646    1.000
    N2560    N        0.45107    0.71850    0.91351    1.000
    N2561    N        0.38835    0.74010    0.89268    1.000
    Si2562   Si       0.37180    0.74001    0.93365    1.000
    Si2563   Si       0.43150    0.74861    0.89022    1.000
    Si2564   Si       0.27142    0.52495    0.98679    1.000
    Si2565   Si       0.35021    0.52925    0.96625    1.000
    N2566    N        0.34917    0.57257    0.96616    1.000
    N2567    N        0.26347    0.57018    0.99094    1.000
    N2568    N        0.31359    0.51680    0.98575    1.000
    Si2569   Si       0.24285    0.59033    0.95549    1.000
    N2570    N        0.25992    0.51057    0.94527    1.000
    N2571    N        0.25542    0.63073    0.95018    1.000
    N2572    N        0.43693    0.59279    0.96460    1.000
    Si2573   Si       0.45862    0.63032    0.96221    1.000
    N2574    N        0.26386    0.70111    0.96075    1.000
    N2575    N        0.32968    0.67475    0.97363    1.000
    Si2576   Si       0.30794    0.71112    0.96546    1.000
    N2577    N        0.30284    0.74750    0.99041    1.000
    Si2578   Si       0.23580    0.66826    0.95535    1.000
    N2579    N        0.44174    0.74118    0.97385    1.000
    Si2580   Si       0.43133    0.70342    0.95286    1.000
    N2581    N        0.45286    0.67222    0.97137    1.000
    N2582    N        0.39072    0.70349    0.94806    1.000
    N2583    N        0.26699    0.85326    0.03491    1.000
    Si2584   Si       0.29848    0.82473    0.03155    1.000
    N2585    N        0.28696    0.78273    0.04137    1.000
    N2586    N        0.35505    0.78135    0.02173    1.000
    Si2587   Si       0.35271    0.87314    0.05121    1.000
    Si2588   Si       0.26702    0.77006    0.00323    1.000
    N2589    N        0.42376    0.79309    0.03109    1.000
    Si2590   Si       0.42632    0.83696    0.02750    1.000
    N2591    N        0.39134    0.85591    0.04051    1.000
    Si2592   Si       0.38634    0.77618    0.05162    1.000
    Si2593   Si       0.44658    0.76246    0.01167    1.000
    N2594    N        0.45671    0.85134    0.05430    1.000
    N2595    N        0.34663    0.89066    0.00960    1.000
    N2596    N        0.30250    0.96724    0.01869    1.000
    Si2597   Si       0.32676    0.92985    0.02247    1.000
    Si2598   Si       0.26958    0.99069    0.02860    1.000
    N2599    N        0.47085    0.95963    0.01933    1.000
    Si2600   Si       0.38101    0.92118    0.99931    1.000
    N2601    N        0.36728    0.94180    0.03833    1.000
    N2602    N        0.42410    0.92087    0.01077    1.000
    Si2603   Si       0.44038    0.94415    0.04699    1.000
    Si2604   Si       0.27055    0.78101    0.08316    1.000
    Si2605   Si       0.33881    0.81355    0.09550    1.000
    N2606    N        0.26342    0.87658    0.09943    1.000
    N2607    N        0.32672    0.83850    0.06239    1.000
    N2608    N        0.30773    0.78685    0.10791    1.000
    N2609    N        0.24218    0.81051    0.09527    1.000
    N2610    N        0.37893    0.79743    0.08864    1.000
    Si2611   Si       0.44452    0.87419    0.08954    1.000
    N2612    N        0.44616    0.79116    0.10403    1.000
    N2613    N        0.41131    0.85604    0.11237    1.000
    Si2614   Si       0.40941    0.81196    0.11313    1.000
    Si2615   Si       0.32981    0.92952    0.08898    1.000
    N2616    N        0.25736    0.99412    0.07022    1.000
    N2617    N        0.34682    0.97014    0.09352    1.000
    N2618    N        0.35859    0.89621    0.08822    1.000
    Si2619   Si       0.26834    0.88824    0.05843    1.000
    N2620    N        0.30412    0.91273    0.05583    1.000
    Si2621   Si       0.23618    0.98342    0.10681    1.000
    Si2622   Si       0.37661    0.97811    0.05948    1.000
    N2623    N        0.41927    0.97759    0.06511    1.000
    Si2624   Si       0.43120    0.00328    0.09894    1.000
    N2625    N        0.44663    0.91805    0.08357    1.000
    N2626    N        0.35053    0.83766    0.13079    1.000
    N2627    N        0.26188    0.83201    0.16281    1.000
    N2628    N        0.34030    0.77618    0.16562    1.000
    Si2629   Si       0.30618    0.76132    0.14363    1.000
    Si2630   Si       0.36046    0.81373    0.16625    1.000
    Si2631   Si       0.24319    0.84465    0.12420    1.000
    N2632    N        0.26956    0.75629    0.16551    1.000
    Si2633   Si       0.37189    0.87390    0.12214    1.000
    N2634    N        0.47573    0.87329    0.12096    1.000
    N2635    N        0.40304    0.80643    0.15752    1.000
    Si2636   Si       0.46807    0.86953    0.16524    1.000
    N2637    N        0.47007    0.82566    0.16645    1.000
    Si2638   Si       0.33083    0.90978    0.16328    1.000
    Si2639   Si       0.26680    0.91287    0.12330    1.000
    N2640    N        0.30911    0.91942    0.12554    1.000
    N2641    N        0.24976    0.90597    0.16123    1.000
    N2642    N        0.27067    0.98459    0.13695    1.000
    Si2643   Si       0.30262    0.97696    0.16499    1.000
    Si2644   Si       0.24450    0.00436    0.17023    1.000
    Si2645   Si       0.46114    0.93164    0.12054    1.000
    N2646    N        0.37336    0.90208    0.15650    1.000
    N2647    N        0.44397    0.92539    0.16031    1.000
    Si2648   Si       0.45354    0.96672    0.17039    1.000
    N2649    N        0.45062    0.97542    0.12638    1.000
    Si2650   Si       0.33435    0.86544    0.22132    1.000
    N2651    N        0.24757    0.86448    0.22110    1.000
    Si2652   Si       0.26735    0.87040    0.18224    1.000
    Si2653   Si       0.24652    0.79106    0.18008    1.000
    N2654    N        0.24611    0.79486    0.22452    1.000
    N2655    N        0.31058    0.88042    0.18806    1.000
    N2656    N        0.36346    0.83492    0.20608    1.000
    N2657    N        0.43090    0.86944    0.19117    1.000
    Si2658   Si       0.43140    0.82434    0.18546    1.000
    N2659    N        0.43156    0.81415    0.22740    1.000
    N2660    N        0.38241    0.76897    0.21910    1.000
    Si2661   Si       0.38913    0.80850    0.23181    1.000
    N2662    N        0.32529    0.94570    0.18579    1.000
    N2663    N        0.27457    0.99055    0.19895    1.000
    Si2664   Si       0.33249    0.94189    0.22726    1.000
    Si2665   Si       0.43589    0.88714    0.23119    1.000
    N2666    N        0.42119    0.98517    0.19183    1.000
    Si2667   Si       0.40370    0.96612    0.22624    1.000
    Si2668   Si       0.41025    0.90655    0.17856    1.000
    N2669    N        0.40877    0.92182    0.22358    1.000
    Si2670   Si       0.29292    0.86624    0.28216    1.000
    N2671    N        0.30492    0.84335    0.24417    1.000
    Si2672   Si       0.26336    0.83084    0.24166    1.000
    N2673    N        0.26031    0.84001    0.28593    1.000
    N2674    N        0.31889    0.76195    0.24747    1.000
    Si2675   Si       0.36048    0.76112    0.25570    1.000
    N2676    N        0.37212    0.80178    0.26959    1.000
    N2677    N        0.41225    0.87163    0.26461    1.000
    Si2678   Si       0.46339    0.80233    0.25179    1.000
    N2679    N        0.48385    0.76564    0.24419    1.000
    N2680    N        0.30139    0.95500    0.25418    1.000
    Si2681   Si       0.34335    0.99969    0.26858    1.000
    Si2682   Si       0.27750    0.98730    0.24348    1.000
    N2683    N        0.34682    0.90167    0.24058    1.000
    N2684    N        0.36273    0.97102    0.24046    1.000
    Si2685   Si       0.47402    0.90403    0.29093    1.000
    N2686    N        0.47427    0.89584    0.24796    1.000
    N2687    N        0.42814    0.98094    0.25937    1.000
    Si2688   Si       0.38529    0.90720    0.26056    1.000
    N2689    N        0.28088    0.77949    0.31164    1.000
    N2690    N        0.32655    0.85823    0.30740    1.000
    Si2691   Si       0.31842    0.77249    0.33243    1.000
    Si2692   Si       0.25064    0.80984    0.31370    1.000
    N2693    N        0.34934    0.80082    0.33569    1.000
    Si2694   Si       0.35872    0.82899    0.30370    1.000
    Si2695   Si       0.32347    0.88561    0.33972    1.000
    Si2696   Si       0.44574    0.77350    0.32006    1.000
    N2697    N        0.39582    0.84113    0.32301    1.000
    N2698    N        0.46114    0.86785    0.31364    1.000
    N2699    N        0.40488    0.76645    0.32881    1.000
    Si2700   Si       0.42645    0.84601    0.29659    1.000
    N2701    N        0.45293    0.81021    0.29442    1.000
    Si2702   Si       0.48980    0.83684    0.29891    1.000
    Si2703   Si       0.31025    0.99484    0.33856    1.000
    N2704    N        0.27814    0.97658    0.31510    1.000
    N2705    N        0.34191    0.98381    0.30904    1.000
    N2706    N        0.32865    0.92281    0.31804    1.000
    Si2707   Si       0.29843    0.94187    0.29430    1.000
    N2708    N        0.27439    0.90523    0.28915    1.000
    Si2709   Si       0.36390    0.94832    0.32293    1.000
    Si2710   Si       0.42626    0.96003    0.29633    1.000
    N2711    N        0.46597    0.94397    0.29924    1.000
    N2712    N        0.41029    0.98676    0.32845    1.000
    N2713    N        0.39317    0.93134    0.29555    1.000
    Si2714   Si       0.25862    0.78335    0.37500    1.000
    Si2715   Si       0.25157    0.86417    0.36767    1.000
    N2716    N        0.35350    0.87210    0.36773    1.000
    N2717    N        0.30178    0.77141    0.37556    1.000
    N2718    N        0.25258    0.82190    0.35599    1.000
    N2719    N        0.39462    0.81557    0.38817    1.000
    Si2720   Si       0.39332    0.85376    0.36378    1.000
    Si2721   Si       0.38210    0.78730    0.35999    1.000
    N2722    N        0.47788    0.84641    0.37907    1.000
    N2723    N        0.47097    0.77709    0.35566    1.000
    Si2724   Si       0.45928    0.87938    0.35629    1.000
    N2725    N        0.28611    0.89117    0.36098    1.000
    N2726    N        0.25617    0.94340    0.39694    1.000
    N2727    N        0.31386    0.96630    0.37267    1.000
    Si2728   Si       0.34974    0.96920    0.39739    1.000
    Si2729   Si       0.29531    0.92844    0.38215    1.000
    Si2730   Si       0.34940    0.88633    0.40918    1.000
    N2731    N        0.37374    0.94533    0.36625    1.000
    N2732    N        0.41977    0.88766    0.37173    1.000
    Si2733   Si       0.47113    0.94511    0.39468    1.000
    Si2734   Si       0.41062    0.99293    0.37113    1.000
    Si2735   Si       0.40582    0.92569    0.38876    1.000
    N2736    N        0.48238    0.91559    0.36349    1.000
    N2737    N        0.37075    0.00479    0.38937    1.000
    N2738    N        0.43110    0.95916    0.38837    1.000
    N2739    N        0.34870    0.78845    0.43699    1.000
    Si2740   Si       0.32450    0.82255    0.45176    1.000
    N2741    N        0.28531    0.82696    0.43352    1.000
    N2742    N        0.35241    0.84891    0.43222    1.000
    Si2743   Si       0.24747    0.84746    0.44062    1.000
    Si2744   Si       0.25986    0.78366    0.45569    1.000
    N2745    N        0.24110    0.77767    0.41360    1.000
    Si2746   Si       0.38395    0.81840    0.42926    1.000
    N2747    N        0.40445    0.79299    0.45845    1.000
    Si2748   Si       0.37830    0.75794    0.45521    1.000
    N2749    N        0.26857    0.00046    0.43733    1.000
    N2750    N        0.34216    0.97080    0.44071    1.000
    Si2751   Si       0.32066    0.93479    0.45228    1.000
    Si2752   Si       0.25595    0.95975    0.43992    1.000
    N2753    N        0.28054    0.93753    0.46754    1.000
    N2754    N        0.31741    0.91392    0.41549    1.000
    Si2755   Si       0.49163    0.90675    0.45456    1.000
    N2756    N        0.38469    0.90857    0.42231    1.000
    N2757    N        0.45657    0.99323    0.45666    1.000
    N2758    N        0.45848    0.92759    0.43357    1.000
    Si2759   Si       0.38568    0.90510    0.46576    1.000
    N2760    N        0.32304    0.83778    0.49274    1.000
    Si2761   Si       0.30005    0.80782    0.51461    1.000
    N2762    N        0.29395    0.78076    0.48236    1.000
    Si2763   Si       0.33051    0.87686    0.50844    1.000
    N2764    N        0.24079    0.87839    0.47319    1.000
    N2765    N        0.26003    0.82290    0.52634    1.000
    Si2766   Si       0.43229    0.79456    0.49105    1.000
    N2767    N        0.40045    0.86761    0.47880    1.000
    Si2768   Si       0.40218    0.85821    0.51958    1.000
    N2769    N        0.47114    0.79823    0.47174    1.000
    N2770    N        0.42624    0.82079    0.52536    1.000
    N2771    N        0.25312    0.00776    0.50352    1.000
    N2772    N        0.24074    0.93987    0.51709    1.000
    Si2773   Si       0.35310    0.99992    0.46948    1.000
    Si2774   Si       0.26169    0.91024    0.49550    1.000
    N2775    N        0.34349    0.90719    0.47776    1.000
    N2776    N        0.29069    0.89277    0.52193    1.000
    N2777    N        0.47678    0.92723    0.49127    1.000
    N2778    N        0.41022    0.93401    0.48476    1.000
    Si2779   Si       0.39615    0.95222    0.52377    1.000
    N2780    N        0.36852    0.98035    0.50517    1.000
    Si2781   Si       0.44789    0.95145    0.46696    1.000
    N2782    N        0.31093    0.79698    0.55453    1.000
    Si2783   Si       0.27170    0.81327    0.56710    1.000
    Si2784   Si       0.34271    0.79060    0.58214    1.000
    N2785    N        0.36403    0.87392    0.53526    1.000
    N2786    N        0.43508    0.88218    0.53680    1.000
    Si2787   Si       0.45778    0.84530    0.54377    1.000
    Si2788   Si       0.41165    0.77909    0.55513    1.000
    N2789    N        0.38111    0.80863    0.56896    1.000
    N2790    N        0.46152    0.83799    0.58589    1.000
    Si2791   Si       0.26706    0.88406    0.55794    1.000
    N2792    N        0.30339    0.96315    0.54396    1.000
    N2793    N        0.24543    0.98807    0.56915    1.000
    Si2794   Si       0.26290    0.97267    0.52948    1.000
    Si2795   Si       0.33382    0.98654    0.52764    1.000
    Si2796   Si       0.30813    0.93728    0.58217    1.000
    N2797    N        0.26661    0.92184    0.58038    1.000
    N2798    N        0.43725    0.95697    0.53899    1.000
    Si2799   Si       0.36473    0.90072    0.57052    1.000
    Si2800   Si       0.45705    0.91835    0.53162    1.000
    Si2801   Si       0.46145    0.99215    0.54728    1.000
    N2802    N        0.37157    0.94246    0.56071    1.000
    N2803    N        0.34146    0.82592    0.61333    1.000
    Si2804   Si       0.31284    0.86128    0.61043    1.000
    N2805    N        0.24561    0.78518    0.58779    1.000
    N2806    N        0.28116    0.85141    0.58335    1.000
    Si2807   Si       0.44616    0.80779    0.61150    1.000
    Si2808   Si       0.38324    0.83653    0.60182    1.000
    N2809    N        0.41066    0.81942    0.63110    1.000
    N2810    N        0.48175    0.81493    0.63856    1.000
    N2811    N        0.39020    0.87919    0.59844    1.000
    N2812    N        0.44361    0.77156    0.58672    1.000
    N2813    N        0.32715    0.89964    0.59219    1.000
    N2814    N        0.32363    0.96576    0.61141    1.000
    Si2815   Si       0.31788    0.99934    0.64206    1.000
    Si2816   Si       0.24339    0.00285    0.63639    1.000
    N2817    N        0.38478    0.00405    0.60118    1.000
    Si2818   Si       0.40433    0.90321    0.63442    1.000
    N2819    N        0.38532    0.94282    0.63390    1.000
    N2820    N        0.44672    0.90671    0.63282    1.000
    N2821    N        0.45679    0.99685    0.59084    1.000
    Si2822   Si       0.48494    0.00337    0.62227    1.000
    Si2823   Si       0.36694    0.96326    0.60022    1.000
    N2824    N        0.30296    0.78498    0.66151    1.000
    N2825    N        0.30359    0.85618    0.65277    1.000
    Si2826   Si       0.32839    0.81917    0.65363    1.000
    Si2827   Si       0.27377    0.86593    0.68276    1.000
    Si2828   Si       0.27902    0.78652    0.69856    1.000
    N2829    N        0.25759    0.82809    0.69875    1.000
    N2830    N        0.36134    0.81666    0.68084    1.000
    N2831    N        0.43446    0.83190    0.69211    1.000
    Si2832   Si       0.47618    0.83224    0.67759    1.000
    Si2833   Si       0.39899    0.83330    0.67011    1.000
    N2834    N        0.39082    0.87763    0.66908    1.000
    Si2835   Si       0.24269    0.93333    0.67074    1.000
    N2836    N        0.34789    0.99473    0.67373    1.000
    N2837    N        0.27394    0.93889    0.69894    1.000
    N2838    N        0.24370    0.89028    0.66336    1.000
    N2839    N        0.35109    0.93297    0.69463    1.000
    N2840    N        0.27927    0.00629    0.66213    1.000
    N2841    N        0.40941    0.97222    0.69561    1.000
    Si2842   Si       0.37451    0.96115    0.67069    1.000
    N2843    N        0.48382    0.99357    0.66424    1.000
    N2844    N        0.30654    0.80732    0.73302    1.000
    Si2845   Si       0.27277    0.83945    0.74306    1.000
    Si2846   Si       0.34832    0.82223    0.72119    1.000
    N2847    N        0.34750    0.86536    0.72223    1.000
    Si2848   Si       0.31553    0.76623    0.75113    1.000
    N2849    N        0.28200    0.87799    0.72537    1.000
    Si2850   Si       0.31963    0.87985    0.75220    1.000
    N2851    N        0.37967    0.80947    0.74815    1.000
    Si2852   Si       0.45895    0.78565    0.72685    1.000
    Si2853   Si       0.39330    0.76776    0.74469    1.000
    N2854    N        0.48408    0.87384    0.74658    1.000
    N2855    N        0.42397    0.76190    0.71485    1.000
    Si2856   Si       0.26270    0.92002    0.73709    1.000
    Si2857   Si       0.31395    0.94655    0.71554    1.000
    Si2858   Si       0.27596    0.99478    0.75170    1.000
    N2859    N        0.31286    0.98896    0.72882    1.000
    N2860    N        0.31103    0.92423    0.75410    1.000
    N2861    N        0.47278    0.93181    0.70359    1.000
    Si2862   Si       0.43328    0.94335    0.71884    1.000
    Si2863   Si       0.37444    0.89424    0.70425    1.000
    N2864    N        0.40624    0.91072    0.73130    1.000
    Si2865   Si       0.41605    0.00198    0.73008    1.000
    N2866    N        0.43387    0.96987    0.75403    1.000
    N2867    N        0.29579    0.85383    0.78002    1.000
    Si2868   Si       0.28592    0.87479    0.81642    1.000
    Si2869   Si       0.46516    0.84922    0.77428    1.000
    Si2870   Si       0.40915    0.82302    0.77861    1.000
    N2871    N        0.42322    0.86394    0.78006    1.000
    N2872    N        0.44859    0.81061    0.75930    1.000
    N2873    N        0.40533    0.80760    0.81775    1.000
    Si2874   Si       0.24477    0.94291    0.80142    1.000
    Si2875   Si       0.33129    0.92961    0.79328    1.000
    N2876    N        0.25190    0.89918    0.80307    1.000
    N2877    N        0.34798    0.96695    0.79792    1.000
    N2878    N        0.35958    0.89607    0.78266    1.000
    N2879    N        0.25458    0.95824    0.76009    1.000
    Si2880   Si       0.43352    0.96693    0.79611    1.000
    N2881    N        0.40929    0.99889    0.80846    1.000
    Si2882   Si       0.36719    0.99993    0.81594    1.000
    N2883    N        0.41486    0.92769    0.80589    1.000
    Si2884   Si       0.40214    0.90148    0.77245    1.000
    N2885    N        0.47097    0.96675    0.81975    1.000
    N2886    N        0.30791    0.78220    0.85765    1.000
    N2887    N        0.28235    0.85130    0.85351    1.000
    Si2888   Si       0.31480    0.82553    0.86317    1.000
    N2889    N        0.34516    0.83730    0.83583    1.000
    Si2890   Si       0.27095    0.76775    0.87170    1.000
    Si2891   Si       0.35402    0.87840    0.82377    1.000
    Si2892   Si       0.39980    0.83402    0.85228    1.000
    N2893    N        0.44513    0.83614    0.86418    1.000
    Si2894   Si       0.47708    0.85907    0.84685    1.000
    N2895    N        0.39306    0.87640    0.84391    1.000
    Si2896   Si       0.40727    0.76336    0.81846    1.000
    Si2897   Si       0.26376    0.94775    0.86959    1.000
    N2898    N        0.26974    0.96297    0.82994    1.000
    N2899    N        0.31946    0.90201    0.82744    1.000
    Si2900   Si       0.27330    0.00595    0.84402    1.000
    Si2901   Si       0.48708    0.93695    0.85089    1.000
    N2902    N        0.36119    0.99803    0.85893    1.000
    Si2903   Si       0.41925    0.91117    0.84570    1.000
    N2904    N        0.46242    0.90076    0.84592    1.000
    N2905    N        0.32434    0.82642    0.90598    1.000
    N2906    N        0.25328    0.86985    0.91981    1.000
    N2907    N        0.24920    0.80326    0.88761    1.000
    Si2908   Si       0.25021    0.84756    0.88212    1.000
    Si2909   Si       0.36224    0.81786    0.92296    1.000
    N2910    N        0.39230    0.82001    0.89306    1.000
    Si2911   Si       0.43791    0.82742    0.90533    1.000
    N2912    N        0.44395    0.78440    0.91401    1.000
    N2913    N        0.42572    0.86957    0.92092    1.000
    N2914    N        0.47711    0.83334    0.93295    1.000
    N2915    N        0.28472    0.93270    0.90349    1.000
    Si2916   Si       0.30662    0.97579    0.91089    1.000
    N2917    N        0.35039    0.95590    0.91391    1.000
    N2918    N        0.26847    0.98804    0.88573    1.000
    Si2919   Si       0.27905    0.90265    0.93441    1.000
    N2920    N        0.40721    0.93333    0.88267    1.000
    Si2921   Si       0.38398    0.97148    0.88657    1.000
    N2922    N        0.47418    0.95613    0.88753    1.000
    Si2923   Si       0.45982    0.99865    0.88966    1.000
    Si2924   Si       0.41741    0.91346    0.92030    1.000
    N2925    N        0.41715    0.00015    0.88848    1.000
    Si2926   Si       0.48902    0.93719    0.92600    1.000
    Si2927   Si       0.33422    0.86414    0.97677    1.000
    Si2928   Si       0.35150    0.80057    0.98392    1.000
    N2929    N        0.31374    0.82616    0.99299    1.000
    N2930    N        0.24008    0.80382    0.99440    1.000
    N2931    N        0.36423    0.78088    0.94696    1.000
    N2932    N        0.36846    0.83994    0.96151    1.000
    N2933    N        0.43219    0.84446    0.98552    1.000
    Si2934   Si       0.47285    0.83098    0.97563    1.000
    Si2935   Si       0.40434    0.86370    0.95903    1.000
    N2936    N        0.47845    0.78789    0.98820    1.000
    Si2937   Si       0.46699    0.76561    0.94645    1.000
    Si2938   Si       0.25316    0.96729    0.96557    1.000
    N2939    N        0.25795    0.92238    0.96979    1.000
    N2940    N        0.29237    0.97708    0.95329    1.000
    N2941    N        0.34818    0.94936    0.98029    1.000
    Si2942   Si       0.32267    0.98263    0.98288    1.000
    N2943    N        0.32017    0.89391    0.94804    1.000
    Si2944   Si       0.35031    0.92534    0.94435    1.000
    N2945    N        0.38740    0.90497    0.95497    1.000
    Si2946   Si       0.45942    0.93146    0.98790    1.000
    N2947    N        0.44802    0.93506    0.94446    1.000
    N2948    N        0.41166    0.00794    0.97386    1.000
    N2949    N        0.58832    0.03265    0.00805    1.000
    N2950    N        0.51896    0.09153    0.01534    1.000
    Si2951   Si       0.56169    0.09595    0.02270    1.000
    Si2952   Si       0.49933    0.05412    0.99927    1.000
    N2953    N        0.49712    0.02854    0.03498    1.000
    Si2954   Si       0.59818    0.03559    0.05078    1.000
    N2955    N        0.58852    0.07883    0.05554    1.000
    Si2956   Si       0.49104    0.12132    0.03018    1.000
    Si2957   Si       0.72709    0.12548    0.04425    1.000
    N2958    N        0.71857    0.10644    0.00717    1.000
    N2959    N        0.64860    0.07366    0.01577    1.000
    N2960    N        0.71024    0.03683    0.04046    1.000
    Si2961   Si       0.69148    0.07201    0.01817    1.000
    Si2962   Si       0.67413    0.01059    0.04094    1.000
    N2963    N        0.56375    0.13558    0.04577    1.000
    N2964    N        0.58554    0.20348    0.01912    1.000
    N2965    N        0.50538    0.16213    0.03850    1.000
    Si2966   Si       0.49632    0.18899    0.00566    1.000
    N2967    N        0.52176    0.22374    0.00092    1.000
    N2968    N        0.70325    0.16147    0.05129    1.000
    N2969    N        0.63112    0.14173    0.04637    1.000
    Si2970   Si       0.62025    0.17521    0.01652    1.000
    Si2971   Si       0.65091    0.23878    0.04407    1.000
    N2972    N        0.72213    0.21429    0.00700    1.000
    N2973    N        0.65312    0.20478    0.01389    1.000
    Si2974   Si       0.71321    0.20374    0.04865    1.000
    Si2975   Si       0.59985    0.11811    0.06577    1.000
    N2976    N        0.52337    0.04461    0.10483    1.000
    Si2977   Si       0.49556    0.02668    0.07879    1.000
    N2978    N        0.59907    0.12580    0.10814    1.000
    Si2979   Si       0.56046    0.01975    0.11424    1.000
    N2980    N        0.69533    0.09660    0.06199    1.000
    N2981    N        0.63800    0.02126    0.06324    1.000
    Si2982   Si       0.73229    0.06674    0.07246    1.000
    Si2983   Si       0.68518    0.09174    0.10486    1.000
    N2984    N        0.71697    0.06126    0.11233    1.000
    N2985    N        0.52507    0.15033    0.10415    1.000
    Si2986   Si       0.53904    0.16442    0.06583    1.000
    N2987    N        0.55676    0.20236    0.08319    1.000
    Si2988   Si       0.58275    0.22379    0.05679    1.000
    Si2989   Si       0.64183    0.23185    0.11027    1.000
    Si2990   Si       0.66998    0.13706    0.06158    1.000
    N2991    N        0.68995    0.23727    0.06410    1.000
    N2992    N        0.62313    0.22771    0.07169    1.000
    N2993    N        0.66758    0.13271    0.10594    1.000
    Si2994   Si       0.58339    0.07521    0.15503    1.000
    N2995    N        0.54976    0.09329    0.13898    1.000
    N2996    N        0.59550    0.04071    0.13269    1.000
    Si2997   Si       0.51182    0.07016    0.13434    1.000
    N2998    N        0.61115    0.10612    0.16972    1.000
    Si2999   Si       0.64000    0.04026    0.14636    1.000
    Si3000   Si       0.63459    0.11805    0.13429    1.000
    N3001    N        0.65348    0.07644    0.12996    1.000
    Si3002   Si       0.73458    0.03495    0.14386    1.000
    Si3003   Si       0.55834    0.13421    0.12606    1.000
    N3004    N        0.54157    0.22389    0.15753    1.000
    N3005    N        0.56415    0.15714    0.16122    1.000
    N3006    N        0.60741    0.21815    0.13623    1.000
    Si3007   Si       0.56666    0.22424    0.12065    1.000
    N3008    N        0.72103    0.16201    0.12626    1.000
    N3009    N        0.67037    0.20996    0.13722    1.000
    Si3010   Si       0.67879    0.16545    0.13260    1.000
    Si3011   Si       0.69305    0.24782    0.14472    1.000
    Si3012   Si       0.63486    0.20303    0.16862    1.000
    N3013    N        0.64192    0.15966    0.15821    1.000
    N3014    N        0.57226    0.06362    0.19535    1.000
    Si3015   Si       0.52822    0.07194    0.20225    1.000
    N3016    N        0.51986    0.11434    0.20440    1.000
    Si3017   Si       0.57179    0.03212    0.22640    1.000
    N3018    N        0.50135    0.05556    0.17426    1.000
    Si3019   Si       0.61565    0.08425    0.21038    1.000
    Si3020   Si       0.68948    0.11786    0.22416    1.000
    N3021    N        0.63530    0.04611    0.18920    1.000
    N3022    N        0.71215    0.11225    0.18546    1.000
    N3023    N        0.71805    0.04101    0.18374    1.000
    Si3024   Si       0.72910    0.07642    0.20402    1.000
    Si3025   Si       0.63983    0.02755    0.22697    1.000
    Si3026   Si       0.70620    0.00698    0.20969    1.000
    N3027    N        0.64627    0.10938    0.23091    1.000
    N3028    N        0.58775    0.13106    0.22175    1.000
    Si3029   Si       0.54664    0.14095    0.22654    1.000
    N3030    N        0.60066    0.19081    0.19684    1.000
    N3031    N        0.53324    0.18381    0.21912    1.000
    Si3032   Si       0.60057    0.14750    0.18147    1.000
    Si3033   Si       0.55642    0.19345    0.18378    1.000
    N3034    N        0.65015    0.22914    0.20105    1.000
    N3035    N        0.72172    0.24432    0.17816    1.000
    Si3036   Si       0.52798    0.02993    0.27824    1.000
    N3037    N        0.53308    0.05357    0.24088    1.000
    N3038    N        0.60886    0.05161    0.24638    1.000
    Si3039   Si       0.60120    0.03527    0.28707    1.000
    N3040    N        0.56737    0.00912    0.27175    1.000
    Si3041   Si       0.49311    0.13318    0.27488    1.000
    N3042    N        0.71097    0.08538    0.24416    1.000
    Si3043   Si       0.70420    0.04699    0.26702    1.000
    N3044    N        0.68143    0.02371    0.23963    1.000
    Si3045   Si       0.73882    0.11034    0.27397    1.000
    N3046    N        0.53627    0.13716    0.26971    1.000
    N3047    N        0.50885    0.23580    0.26767    1.000
    Si3048   Si       0.54404    0.21262    0.25621    1.000
    N3049    N        0.57857    0.23553    0.24013    1.000
    N3050    N        0.60581    0.13515    0.29033    1.000
    Si3051   Si       0.49080    0.25530    0.23302    1.000
    N3052    N        0.69951    0.15512    0.24254    1.000
    N3053    N        0.63583    0.17945    0.25060    1.000
    Si3054   Si       0.67424    0.17658    0.26854    1.000
    N3055    N        0.69714    0.21324    0.27631    1.000
    Si3056   Si       0.67437    0.24925    0.27705    1.000
    Si3057   Si       0.61977    0.13826    0.24994    1.000
    N3058    N        0.63309    0.24279    0.26766    1.000
    Si3059   Si       0.61963    0.21585    0.23299    1.000
    N3060    N        0.58550    0.05713    0.32051    1.000
    N3061    N        0.51494    0.05538    0.31068    1.000
    Si3062   Si       0.54507    0.06299    0.34108    1.000
    Si3063   Si       0.61524    0.07157    0.34716    1.000
    N3064    N        0.63180    0.00874    0.29914    1.000
    N3065    N        0.71165    0.11106    0.30910    1.000
    N3066    N        0.68801    0.04395    0.30817    1.000
    N3067    N        0.64839    0.09855    0.33357    1.000
    Si3068   Si       0.68879    0.08265    0.33239    1.000
    Si3069   Si       0.66160    0.01295    0.32925    1.000
    N3070    N        0.55765    0.13957    0.33839    1.000
    Si3071   Si       0.56298    0.22555    0.32421    1.000
    N3072    N        0.52063    0.23306    0.33682    1.000
    Si3073   Si       0.56576    0.15350    0.29750    1.000
    N3074    N        0.56174    0.19659    0.29385    1.000
    N3075    N        0.66874    0.16059    0.30981    1.000
    Si3076   Si       0.70690    0.14891    0.32780    1.000
    Si3077   Si       0.63481    0.13851    0.32337    1.000
    N3078    N        0.59347    0.09520    0.37786    1.000
    N3079    N        0.53945    0.03208    0.37026    1.000
    N3080    N        0.52185    0.09049    0.36829    1.000
    Si3081   Si       0.52563    0.06084    0.40007    1.000
    Si3082   Si       0.51770    0.13001    0.35298    1.000
    Si3083   Si       0.64132    0.02541    0.40202    1.000
    N3084    N        0.71012    0.08323    0.37004    1.000
    N3085    N        0.64325    0.03813    0.36076    1.000
    Si3086   Si       0.70904    0.11743    0.39600    1.000
    Si3087   Si       0.58427    0.13694    0.37181    1.000
    N3088    N        0.59360    0.22629    0.35872    1.000
    Si3089   Si       0.50600    0.23909    0.37780    1.000
    N3090    N        0.50595    0.16317    0.37725    1.000
    N3091    N        0.56773    0.15958    0.40507    1.000
    Si3092   Si       0.69382    0.24144    0.35313    1.000
    N3093    N        0.72637    0.22201    0.37638    1.000
    N3094    N        0.70394    0.15300    0.37160    1.000
    N3095    N        0.66523    0.21332    0.37053    1.000
    Si3096   Si       0.69842    0.19100    0.39058    1.000
    Si3097   Si       0.62467    0.19960    0.37668    1.000
    N3098    N        0.61937    0.15967    0.35803    1.000
    N3099    N        0.55042    0.07406    0.43138    1.000
    Si3100   Si       0.59052    0.08639    0.42201    1.000
    N3101    N        0.61029    0.12128    0.44157    1.000
    Si3102   Si       0.52309    0.07583    0.46541    1.000
    N3103    N        0.49084    0.04847    0.41899    1.000
    N3104    N        0.61784    0.05430    0.42466    1.000
    N3105    N        0.67323    0.03255    0.43064    1.000
    Si3106   Si       0.65030    0.12065    0.45629    1.000
    Si3107   Si       0.64664    0.05237    0.45819    1.000
    N3108    N        0.67720    0.11794    0.42429    1.000
    N3109    N        0.51216    0.17654    0.45260    1.000
    Si3110   Si       0.59686    0.16263    0.43638    1.000
    Si3111   Si       0.51121    0.22483    0.44983    1.000
    Si3112   Si       0.52809    0.17617    0.41058    1.000
    N3113    N        0.52887    0.22150    0.41076    1.000
    N3114    N        0.69593    0.19736    0.43234    1.000
    Si3115   Si       0.73199    0.21335    0.45343    1.000
    Si3116   Si       0.65738    0.19428    0.45106    1.000
    N3117    N        0.62746    0.19077    0.41998    1.000
    N3118    N        0.53686    0.09269    0.50235    1.000
    N3119    N        0.50377    0.03971    0.48684    1.000
    N3120    N        0.60213    0.11755    0.51405    1.000
    Si3121   Si       0.52807    0.01362    0.51359    1.000
    Si3122   Si       0.56151    0.11915    0.52675    1.000
    Si3123   Si       0.61468    0.01770    0.51922    1.000
    Si3124   Si       0.70244    0.09826    0.49719    1.000
    Si3125   Si       0.72961    0.03257    0.51396    1.000
    N3126    N        0.62701    0.01916    0.47794    1.000
    N3127    N        0.65894    0.08687    0.48323    1.000
    N3128    N        0.69898    0.01310    0.49222    1.000
    N3129    N        0.73671    0.07133    0.49471    1.000
    Si3130   Si       0.64339    0.09354    0.52917    1.000
    Si3131   Si       0.56665    0.25798    0.49680    1.000
    N3132    N        0.53350    0.22508    0.48855    1.000
    Si3133   Si       0.54102    0.18173    0.48786    1.000
    N3134    N        0.58091    0.17280    0.47522    1.000
    Si3135   Si       0.61290    0.15745    0.50156    1.000
    N3136    N        0.60050    0.25163    0.52335    1.000
    N3137    N        0.54112    0.15822    0.52486    1.000
    N3138    N        0.65331    0.23101    0.47469    1.000
    N3139    N        0.64705    0.16010    0.47595    1.000
    Si3140   Si       0.68541    0.23605    0.50458    1.000
    N3141    N        0.71720    0.21069    0.49440    1.000
    N3142    N        0.72062    0.13875    0.48899    1.000
    Si3143   Si       0.73061    0.17387    0.51214    1.000
    N3144    N        0.54053    0.10555    0.56340    1.000
    N3145    N        0.52453    0.04003    0.55151    1.000
    Si3146   Si       0.51568    0.07902    0.53853    1.000
    Si3147   Si       0.60822    0.04528    0.58443    1.000
    N3148    N        0.62007    0.05381    0.54418    1.000
    N3149    N        0.72991    0.03737    0.55601    1.000
    Si3150   Si       0.71858    0.07659    0.56648    1.000
    N3151    N        0.64139    0.11882    0.56509    1.000
    N3152    N        0.69056    0.09260    0.53815    1.000
    Si3153   Si       0.52274    0.17480    0.56298    1.000
    N3154    N        0.52978    0.21677    0.55512    1.000
    Si3155   Si       0.51023    0.24601    0.52784    1.000
    N3156    N        0.61408    0.17878    0.53900    1.000
    N3157    N        0.71910    0.17748    0.55635    1.000
    Si3158   Si       0.62871    0.15878    0.57378    1.000
    Si3159   Si       0.68714    0.20402    0.57249    1.000
    N3160    N        0.66575    0.22171    0.53957    1.000
    Si3161   Si       0.62403    0.22045    0.54251    1.000
    N3162    N        0.61555    0.23556    0.58152    1.000
    Si3163   Si       0.52788    0.11496    0.60494    1.000
    N3164    N        0.57331    0.02755    0.60071    1.000
    N3165    N        0.50192    0.04650    0.61683    1.000
    N3166    N        0.54249    0.10084    0.64292    1.000
    Si3167   Si       0.57725    0.00776    0.64077    1.000
    Si3168   Si       0.53243    0.02648    0.59024    1.000
    Si3169   Si       0.61449    0.11255    0.63311    1.000
    Si3170   Si       0.66120    0.09977    0.59731    1.000
    N3171    N        0.62591    0.07522    0.61298    1.000
    N3172    N        0.69143    0.07043    0.60051    1.000
    Si3173   Si       0.64379    0.03702    0.63285    1.000
    Si3174   Si       0.71081    0.05590    0.63578    1.000
    N3175    N        0.65759    0.12738    0.63155    1.000
    N3176    N        0.63786    0.01376    0.59596    1.000
    N3177    N        0.56816    0.21640    0.61860    1.000
    N3178    N        0.53474    0.15849    0.60072    1.000
    Si3179   Si       0.54285    0.23717    0.59210    1.000
    N3180    N        0.60413    0.14961    0.61075    1.000
    N3181    N        0.50888    0.23679    0.62030    1.000
    Si3182   Si       0.56811    0.17274    0.62360    1.000
    Si3183   Si       0.60917    0.23108    0.62382    1.000
    Si3184   Si       0.74377    0.24012    0.60607    1.000
    N3185    N        0.73384    0.21118    0.63694    1.000
    Si3186   Si       0.64490    0.16866    0.63503    1.000
    N3187    N        0.65911    0.18164    0.59478    1.000
    N3188    N        0.70750    0.24481    0.58262    1.000
    N3189    N        0.54834    0.02698    0.66640    1.000
    Si3190   Si       0.56076    0.12247    0.67707    1.000
    N3191    N        0.60241    0.10866    0.67502    1.000
    Si3192   Si       0.52563    0.06177    0.65162    1.000
    N3193    N        0.49023    0.06610    0.67776    1.000
    N3194    N        0.61485    0.02188    0.65943    1.000
    N3195    N        0.71014    0.09168    0.65960    1.000
    N3196    N        0.67978    0.02958    0.65317    1.000
    Si3197   Si       0.68962    0.13192    0.66190    1.000
    Si3198   Si       0.61875    0.02669    0.70295    1.000
    Si3199   Si       0.51873    0.24602    0.66395    1.000
    N3200    N        0.56259    0.16435    0.66592    1.000
    N3201    N        0.55257    0.23022    0.68807    1.000
    Si3202   Si       0.58428    0.19902    0.68070    1.000
    N3203    N        0.69246    0.25191    0.67354    1.000
    N3204    N        0.61691    0.19938    0.65170    1.000
    Si3205   Si       0.70421    0.20922    0.67052    1.000
    N3206    N        0.67884    0.17709    0.66045    1.000
    N3207    N        0.73741    0.14746    0.65962    1.000
    N3208    N        0.58213    0.02366    0.72566    1.000
    N3209    N        0.52141    0.03044    0.74064    1.000
    Si3210   Si       0.56590    0.11627    0.74691    1.000
    N3211    N        0.53881    0.11115    0.71223    1.000
    Si3212   Si       0.54242    0.01284    0.70701    1.000
    Si3213   Si       0.49678    0.10013    0.70702    1.000
    N3214    N        0.60686    0.12597    0.73818    1.000
    Si3215   Si       0.56241    0.03904    0.76043    1.000
    Si3216   Si       0.70338    0.12040    0.73241    1.000
    N3217    N        0.70598    0.02564    0.71764    1.000
    Si3218   Si       0.67466    0.04989    0.73843    1.000
    N3219    N        0.64186    0.06320    0.71300    1.000
    N3220    N        0.69488    0.08462    0.75466    1.000
    Si3221   Si       0.63206    0.10719    0.70778    1.000
    N3222    N        0.67285    0.12434    0.70321    1.000
    N3223    N        0.59416    0.25983    0.74584    1.000
    Si3224   Si       0.55860    0.24427    0.72878    1.000
    Si3225   Si       0.60247    0.16739    0.75412    1.000
    N3226    N        0.59504    0.19595    0.72183    1.000
    N3227    N        0.56102    0.15417    0.76685    1.000
    Si3228   Si       0.69422    0.25336    0.71685    1.000
    Si3229   Si       0.73094    0.19198    0.74771    1.000
    N3230    N        0.71197    0.21161    0.71396    1.000
    N3231    N        0.70869    0.15638    0.75821    1.000
    N3232    N        0.65185    0.25205    0.72716    1.000
    Si3233   Si       0.62074    0.22579    0.74271    1.000
    N3234    N        0.58338    0.02080    0.79438    1.000
    Si3235   Si       0.55349    0.08677    0.81116    1.000
    N3236    N        0.56133    0.08112    0.76965    1.000
    N3237    N        0.52615    0.12051    0.81350    1.000
    N3238    N        0.58853    0.10872    0.82309    1.000
    N3239    N        0.65650    0.02623    0.77072    1.000
    Si3240   Si       0.71205    0.07893    0.79504    1.000
    Si3241   Si       0.67640    0.02216    0.80728    1.000
    N3242    N        0.72447    0.11771    0.80759    1.000
    N3243    N        0.65590    0.12148    0.79958    1.000
    Si3244   Si       0.53360    0.18506    0.78522    1.000
    N3245    N        0.53755    0.22304    0.76503    1.000
    N3246    N        0.48951    0.17402    0.78460    1.000
    N3247    N        0.73246    0.22111    0.78010    1.000
    Si3248   Si       0.72227    0.20396    0.81970    1.000
    Si3249   Si       0.69319    0.14332    0.79590    1.000
    Si3250   Si       0.64662    0.19562    0.81641    1.000
    N3251    N        0.62826    0.19517    0.77450    1.000
    N3252    N        0.68747    0.18021    0.81917    1.000
    N3253    N        0.54072    0.05403    0.83653    1.000
    Si3254   Si       0.56457    0.01697    0.83409    1.000
    Si3255   Si       0.51284    0.05457    0.86959    1.000
    N3256    N        0.58570    0.01401    0.87141    1.000
    N3257    N        0.68863    0.05939    0.82637    1.000
    N3258    N        0.65079    0.10775    0.86673    1.000
    Si3259   Si       0.67706    0.07381    0.86582    1.000
    Si3260   Si       0.62891    0.12321    0.83160    1.000
    Si3261   Si       0.62773    0.00883    0.87094    1.000
    Si3262   Si       0.56187    0.14436    0.83005    1.000
    Si3263   Si       0.55590    0.21782    0.85161    1.000
    Si3264   Si       0.60970    0.24993    0.85851    1.000
    N3265    N        0.52391    0.22511    0.87839    1.000
    N3266    N        0.56981    0.13905    0.87337    1.000
    N3267    N        0.54825    0.18589    0.82613    1.000
    Si3268   Si       0.59971    0.17098    0.87785    1.000
    Si3269   Si       0.49241    0.19446    0.87546    1.000
    N3270    N        0.57199    0.25594    0.83565    1.000
    N3271    N        0.71789    0.23859    0.84392    1.000
    N3272    N        0.62157    0.16634    0.83801    1.000
    N3273    N        0.64622    0.23479    0.83846    1.000
    N3274    N        0.57990    0.07072    0.90825    1.000
    N3275    N        0.52834    0.02910    0.90064    1.000
    Si3276   Si       0.55812    0.10777    0.90170    1.000
    Si3277   Si       0.56969    0.02820    0.90979    1.000
    N3278    N        0.51623    0.09510    0.88831    1.000
    Si3279   Si       0.51046    0.01133    0.93503    1.000
    Si3280   Si       0.62426    0.06723    0.91863    1.000
    Si3281   Si       0.73151    0.11201    0.90690    1.000
    N3282    N        0.64665    0.04566    0.88742    1.000
    N3283    N        0.71453    0.07639    0.88876    1.000
    N3284    N        0.63168    0.10825    0.93300    1.000
    Si3285   Si       0.65494    0.12916    0.90315    1.000
    N3286    N        0.50363    0.16461    0.90804    1.000
    Si3287   Si       0.58165    0.22517    0.92232    1.000
    N3288    N        0.59175    0.21551    0.88013    1.000
    N3289    N        0.62953    0.16473    0.90795    1.000
    N3290    N        0.73428    0.19802    0.89796    1.000
    N3291    N        0.69551    0.13718    0.91144    1.000
    Si3292   Si       0.73266    0.24239    0.88673    1.000
    Si3293   Si       0.71236    0.17441    0.92658    1.000
    N3294    N        0.52339    0.03313    0.97126    1.000
    Si3295   Si       0.60046    0.12639    0.95836    1.000
    N3296    N        0.58759    0.09599    0.98695    1.000
    Si3297   Si       0.55798    0.01206    0.98625    1.000
    Si3298   Si       0.61430    0.06176    0.99232    1.000
    N3299    N        0.56026    0.13301    0.93872    1.000
    Si3300   Si       0.66470    0.02465    0.96647    1.000
    N3301    N        0.62951    0.04420    0.95506    1.000
    N3302    N        0.69680    0.05323    0.97519    1.000
    Si3303   Si       0.73629    0.05534    0.96269    1.000
    Si3304   Si       0.56312    0.22047    0.98633    1.000
    N3305    N        0.50214    0.16346    0.97185    1.000
    N3306    N        0.55617    0.20144    0.94767    1.000
    Si3307   Si       0.53185    0.16595    0.94053    1.000
    N3308    N        0.68086    0.19368    0.94890    1.000
    N3309    N        0.62007    0.16204    0.97483    1.000
    Si3310   Si       0.63806    0.18707    0.94313    1.000
    Si3311   Si       0.68515    0.21637    0.98598    1.000
    N3312    N        0.62161    0.22660    0.94203    1.000
    N3313    N        0.59724    0.32288    0.03189    1.000
    Si3314   Si       0.57339    0.28895    0.01704    1.000
    Si3315   Si       0.58240    0.36217    0.01832    1.000
    N3316    N        0.54768    0.37605    0.04204    1.000
    N3317    N        0.53077    0.29952    0.00664    1.000
    Si3318   Si       0.51881    0.26097    0.02371    1.000
    N3319    N        0.55729    0.25882    0.04614    1.000
    N3320    N        0.63376    0.26929    0.01900    1.000
    Si3321   Si       0.63917    0.31173    0.03268    1.000
    Si3322   Si       0.70441    0.32835    0.02682    1.000
    N3323    N        0.66663    0.32731    0.00353    1.000
    N3324    N        0.73840    0.32713    0.99886    1.000
    Si3325   Si       0.58402    0.50557    0.01520    1.000
    Si3326   Si       0.52418    0.41286    0.02847    1.000
    N3327    N        0.59984    0.46844    0.03289    1.000
    Si3328   Si       0.69403    0.40698    0.04365    1.000
    N3329    N        0.70302    0.49721    0.01905    1.000
    N3330    N        0.61622    0.38952    0.02250    1.000
    N3331    N        0.68256    0.40845    0.00109    1.000
    Si3332   Si       0.73104    0.46752    0.03290    1.000
    N3333    N        0.51003    0.31949    0.07958    1.000
    Si3334   Si       0.52020    0.36120    0.07540    1.000
    Si3335   Si       0.53703    0.30277    0.10931    1.000
    N3336    N        0.62897    0.36142    0.08757    1.000
    Si3337   Si       0.67075    0.34842    0.08284    1.000
    Si3338   Si       0.69787    0.27674    0.08064    1.000
    N3339    N        0.66755    0.30819    0.06461    1.000
    N3340    N        0.72531    0.29957    0.05378    1.000
    N3341    N        0.69866    0.36466    0.05219    1.000
    N3342    N        0.50728    0.50327    0.09590    1.000
    Si3343   Si       0.60397    0.46518    0.07569    1.000
    N3344    N        0.57005    0.48390    0.09381    1.000
    Si3345   Si       0.53610    0.48388    0.06901    1.000
    N3346    N        0.60028    0.42502    0.08922    1.000
    Si3347   Si       0.49502    0.42059    0.08605    1.000
    N3348    N        0.51866    0.39268    0.10669    1.000
    N3349    N        0.52394    0.44368    0.06021    1.000
    N3350    N        0.72673    0.43306    0.05781    1.000
    N3351    N        0.66136    0.42078    0.06725    1.000
    Si3352   Si       0.67009    0.44708    0.10243    1.000
    Si3353   Si       0.62378    0.39925    0.06406    1.000
    Si3354   Si       0.73831    0.43073    0.09831    1.000
    N3355    N        0.64160    0.48047    0.09335    1.000
    N3356    N        0.51325    0.29227    0.14561    1.000
    Si3357   Si       0.60248    0.35023    0.12097    1.000
    Si3358   Si       0.54653    0.37677    0.13469    1.000
    Si3359   Si       0.54039    0.26591    0.16760    1.000
    N3360    N        0.55889    0.34189    0.11098    1.000
    N3361    N        0.52529    0.36997    0.17129    1.000
    N3362    N        0.56270    0.26758    0.11452    1.000
    N3363    N        0.62259    0.32511    0.15054    1.000
    Si3364   Si       0.71249    0.36537    0.14404    1.000
    Si3365   Si       0.66152    0.30907    0.14170    1.000
    N3366    N        0.68343    0.34155    0.12321    1.000
    N3367    N        0.65955    0.27006    0.12342    1.000
    N3368    N        0.72114    0.27014    0.11749    1.000
    N3369    N        0.58956    0.38672    0.14327    1.000
    Si3370   Si       0.60975    0.42407    0.13108    1.000
    Si3371   Si       0.57606    0.49153    0.13699    1.000
    N3372    N        0.59680    0.45678    0.15703    1.000
    N3373    N        0.54075    0.49941    0.16030    1.000
    N3374    N        0.72383    0.39633    0.11743    1.000
    N3375    N        0.65185    0.42672    0.13620    1.000
    Si3376   Si       0.72298    0.47526    0.15629    1.000
    N3377    N        0.71048    0.46115    0.11618    1.000
    N3378    N        0.58744    0.34930    0.21245    1.000
    N3379    N        0.57611    0.28420    0.18506    1.000
    Si3380   Si       0.60644    0.31638    0.19090    1.000
    Si3381   Si       0.55534    0.37689    0.20252    1.000
    Si3382   Si       0.56468    0.27268    0.22489    1.000
    N3383    N        0.52431    0.26677    0.20969    1.000
    Si3384   Si       0.70855    0.37259    0.21995    1.000
    Si3385   Si       0.66769    0.27140    0.20904    1.000
    N3386    N        0.63619    0.30147    0.21930    1.000
    Si3387   Si       0.73188    0.29214    0.17625    1.000
    N3388    N        0.69455    0.38223    0.17966    1.000
    N3389    N        0.68729    0.29429    0.17415    1.000
    Si3390   Si       0.59989    0.44294    0.19907    1.000
    N3391    N        0.56578    0.41797    0.20959    1.000
    N3392    N        0.58763    0.47040    0.22970    1.000
    N3393    N        0.50969    0.46247    0.22883    1.000
    N3394    N        0.63911    0.42170    0.20554    1.000
    Si3395   Si       0.67108    0.41970    0.17572    1.000
    Si3396   Si       0.70954    0.44441    0.22511    1.000
    N3397    N        0.69710    0.45270    0.18438    1.000
    N3398    N        0.57085    0.29885    0.25960    1.000
    Si3399   Si       0.57356    0.34367    0.25318    1.000
    N3400    N        0.53545    0.36253    0.24073    1.000
    Si3401   Si       0.60769    0.27525    0.28015    1.000
    Si3402   Si       0.49341    0.36373    0.25171    1.000
    N3403    N        0.69058    0.27427    0.24650    1.000
    N3404    N        0.63646    0.36728    0.26135    1.000
    Si3405   Si       0.72059    0.30399    0.24879    1.000
    Si3406   Si       0.65285    0.32803    0.24998    1.000
    N3407    N        0.69437    0.33770    0.24115    1.000
    N3408    N        0.63819    0.30923    0.28913    1.000
    Si3409   Si       0.50541    0.50461    0.24325    1.000
    N3410    N        0.52625    0.50354    0.28286    1.000
    N3411    N        0.54281    0.44041    0.28138    1.000
    Si3412   Si       0.55012    0.44777    0.23846    1.000
    N3413    N        0.70336    0.47906    0.24897    1.000
    Si3414   Si       0.64655    0.40640    0.24626    1.000
    Si3415   Si       0.70952    0.40908    0.28770    1.000
    N3416    N        0.63383    0.44088    0.26981    1.000
    Si3417   Si       0.61750    0.47967    0.25989    1.000
    N3418    N        0.69340    0.40982    0.24479    1.000
    N3419    N        0.53149    0.31872    0.33653    1.000
    Si3420   Si       0.49967    0.34713    0.32403    1.000
    Si3421   Si       0.55696    0.30777    0.30402    1.000
    N3422    N        0.58023    0.27079    0.31553    1.000
    N3423    N        0.57997    0.34738    0.29603    1.000
    Si3424   Si       0.62246    0.34967    0.30070    1.000
    Si3425   Si       0.66213    0.29925    0.32422    1.000
    N3426    N        0.63916    0.36410    0.33564    1.000
    N3427    N        0.69303    0.32746    0.33655    1.000
    Si3428   Si       0.73217    0.33135    0.31889    1.000
    Si3429   Si       0.68585    0.37398    0.33881    1.000
    N3430    N        0.72650    0.37289    0.30572    1.000
    N3431    N        0.68231    0.26097    0.31721    1.000
    N3432    N        0.51448    0.38770    0.32865    1.000
    Si3433   Si       0.55422    0.47546    0.30315    1.000
    Si3434   Si       0.50790    0.42175    0.30289    1.000
    N3435    N        0.59482    0.49103    0.29653    1.000
    N3436    N        0.55517    0.46499    0.34571    1.000
    N3437    N        0.48960    0.45494    0.32779    1.000
    Si3438   Si       0.62727    0.51023    0.32118    1.000
    N3439    N        0.61826    0.43141    0.34237    1.000
    N3440    N        0.66073    0.48066    0.31370    1.000
    Si3441   Si       0.69330    0.50600    0.32034    1.000
    N3442    N        0.67757    0.41057    0.31580    1.000
    Si3443   Si       0.64700    0.44047    0.31196    1.000
    N3444    N        0.72751    0.49240    0.34377    1.000
    Si3445   Si       0.52909    0.30704    0.37807    1.000
    N3446    N        0.56634    0.28705    0.38597    1.000
    N3447    N        0.51451    0.34927    0.38959    1.000
    N3448    N        0.49662    0.28028    0.38707    1.000
    Si3449   Si       0.59584    0.26958    0.35704    1.000
    N3450    N        0.57526    0.38131    0.36850    1.000
    Si3451   Si       0.65497    0.29103    0.39118    1.000
    Si3452   Si       0.70756    0.32554    0.38311    1.000
    N3453    N        0.69667    0.27565    0.38149    1.000
    N3454    N        0.71217    0.37313    0.37542    1.000
    N3455    N        0.63314    0.29049    0.35425    1.000
    Si3456   Si       0.73691    0.26605    0.40200    1.000
    N3457    N        0.66988    0.32772    0.40527    1.000
    Si3458   Si       0.53131    0.38503    0.36800    1.000
    Si3459   Si       0.59463    0.46190    0.36251    1.000
    N3460    N        0.52004    0.42045    0.39027    1.000
    N3461    N        0.51182    0.49254    0.38898    1.000
    Si3462   Si       0.51662    0.45796    0.36389    1.000
    N3463    N        0.58299    0.45333    0.40575    1.000
    Si3464   Si       0.61638    0.39256    0.35998    1.000
    N3465    N        0.62096    0.49693    0.36220    1.000
    N3466    N        0.62598    0.39252    0.40308    1.000
    Si3467   Si       0.58679    0.29096    0.42207    1.000
    N3468    N        0.60264    0.33062    0.42552    1.000
    N3469    N        0.58721    0.27297    0.46153    1.000
    Si3470   Si       0.59040    0.36839    0.41109    1.000
    Si3471   Si       0.64440    0.33223    0.44014    1.000
    N3472    N        0.62701    0.27041    0.41445    1.000
    Si3473   Si       0.63222    0.26556    0.45695    1.000
    N3474    N        0.65258    0.36908    0.46304    1.000
    N3475    N        0.65743    0.29901    0.46516    1.000
    Si3476   Si       0.49779    0.48057    0.42790    1.000
    N3477    N        0.56117    0.39084    0.43385    1.000
    N3478    N        0.53023    0.45816    0.44689    1.000
    Si3479   Si       0.55074    0.43014    0.41967    1.000
    Si3480   Si       0.60677    0.46409    0.44038    1.000
    N3481    N        0.49466    0.39872    0.45573    1.000
    N3482    N        0.59619    0.49484    0.46840    1.000
    N3483    N        0.73208    0.46116    0.44258    1.000
    N3484    N        0.64368    0.47620    0.42287    1.000
    N3485    N        0.62051    0.42924    0.46470    1.000
    Si3486   Si       0.64629    0.40425    0.43860    1.000
    Si3487   Si       0.68593    0.46963    0.43828    1.000
    Si3488   Si       0.72453    0.41767    0.44043    1.000
    N3489    N        0.68371    0.42278    0.42996    1.000
    Si3490   Si       0.52332    0.32274    0.50494    1.000
    N3491    N        0.55273    0.34804    0.48449    1.000
    N3492    N        0.53327    0.28037    0.51302    1.000
    N3493    N        0.60580    0.38080    0.51540    1.000
    Si3494   Si       0.57696    0.35054    0.52139    1.000
    N3495    N        0.69386    0.27532    0.51839    1.000
    Si3496   Si       0.68706    0.30871    0.49498    1.000
    N3497    N        0.72657    0.32252    0.48245    1.000
    Si3498   Si       0.65056    0.37492    0.50453    1.000
    N3499    N        0.66476    0.33617    0.52204    1.000
    Si3500   Si       0.53712    0.38625    0.46863    1.000
    Si3501   Si       0.52489    0.45201    0.48948    1.000
    N3502    N        0.55096    0.41715    0.49541    1.000
    Si3503   Si       0.58446    0.48983    0.50938    1.000
    Si3504   Si       0.59446    0.42116    0.50313    1.000
    N3505    N        0.54093    0.48226    0.51431    1.000
    N3506    N        0.60334    0.45515    0.52816    1.000
    N3507    N        0.67908    0.46716    0.48194    1.000
    N3508    N        0.72124    0.40204    0.48102    1.000
    N3509    N        0.67105    0.40606    0.52710    1.000
    Si3510   Si       0.69569    0.43155    0.50201    1.000
    Si3511   Si       0.67168    0.50610    0.50102    1.000
    N3512    N        0.53790    0.33969    0.54402    1.000
    Si3513   Si       0.53033    0.30001    0.56919    1.000
    N3514    N        0.59935    0.31877    0.54265    1.000
    Si3515   Si       0.60468    0.27755    0.56283    1.000
    N3516    N        0.49577    0.27438    0.56108    1.000
    N3517    N        0.56308    0.27417    0.58135    1.000
    N3518    N        0.49467    0.38467    0.57859    1.000
    N3519    N        0.64674    0.29120    0.56929    1.000
    N3520    N        0.63877    0.36967    0.57974    1.000
    N3521    N        0.71156    0.31461    0.57476    1.000
    Si3522   Si       0.72828    0.35636    0.57144    1.000
    Si3523   Si       0.68974    0.27911    0.56195    1.000
    Si3524   Si       0.63968    0.33180    0.55573    1.000
    N3525    N        0.59978    0.49178    0.58385    1.000
    N3526    N        0.65491    0.44223    0.58339    1.000
    Si3527   Si       0.62797    0.46934    0.55992    1.000
    N3528    N        0.72441    0.44965    0.52924    1.000
    N3529    N        0.65725    0.50119    0.54351    1.000
    Si3530   Si       0.66530    0.40183    0.57050    1.000
    Si3531   Si       0.73174    0.49289    0.53433    1.000
    N3532    N        0.52233    0.32605    0.60230    1.000
    Si3533   Si       0.60700    0.36925    0.61066    1.000
    Si3534   Si       0.49805    0.31599    0.63698    1.000
    N3535    N        0.60202    0.33213    0.63100    1.000
    N3536    N        0.56611    0.38088    0.59715    1.000
    Si3537   Si       0.53099    0.36310    0.58152    1.000
    Si3538   Si       0.72710    0.31215    0.61505    1.000
    N3539    N        0.49314    0.42798    0.63699    1.000
    N3540    N        0.49586    0.49071    0.62795    1.000
    Si3541   Si       0.58419    0.48223    0.62378    1.000
    Si3542   Si       0.56742    0.40903    0.63215    1.000
    N3543    N        0.55540    0.44869    0.62464    1.000
    N3544    N        0.60822    0.40095    0.64269    1.000
    Si3545   Si       0.67679    0.46001    0.61775    1.000
    Si3546   Si       0.73257    0.41221    0.61344    1.000
    N3547    N        0.70290    0.38931    0.58860    1.000
    N3548    N        0.66590    0.50093    0.61472    1.000
    N3549    N        0.72027    0.45377    0.61631    1.000
    N3550    N        0.52321    0.29126    0.66564    1.000
    N3551    N        0.58367    0.29828    0.69662    1.000
    Si3552   Si       0.60951    0.30328    0.66188    1.000
    N3553    N        0.64663    0.30593    0.68634    1.000
    Si3554   Si       0.68017    0.33766    0.67934    1.000
    Si3555   Si       0.66502    0.27991    0.65543    1.000
    N3556    N        0.66585    0.37651    0.67269    1.000
    N3557    N        0.69521    0.31413    0.64456    1.000
    N3558    N        0.62504    0.26858    0.64138    1.000
    Si3559   Si       0.57363    0.49058    0.69463    1.000
    N3560    N        0.54480    0.39148    0.66552    1.000
    N3561    N        0.53801    0.46502    0.68914    1.000
    N3562    N        0.60233    0.47504    0.66196    1.000
    Si3563   Si       0.50138    0.39400    0.66198    1.000
    Si3564   Si       0.52240    0.45969    0.64893    1.000
    N3565    N        0.72668    0.39104    0.65276    1.000
    N3566    N        0.65868    0.50233    0.68905    1.000
    N3567    N        0.67108    0.44260    0.65693    1.000
    Si3568   Si       0.69287    0.40964    0.67611    1.000
    Si3569   Si       0.62626    0.39350    0.68039    1.000
    Si3570   Si       0.63959    0.46336    0.67934    1.000
    N3571    N        0.52660    0.27519    0.73184    1.000
    N3572    N        0.53212    0.34732    0.71499    1.000
    N3573    N        0.60365    0.37002    0.70921    1.000
    Si3574   Si       0.49442    0.36942    0.72424    1.000
    Si3575   Si       0.56057    0.37704    0.70415    1.000
    Si3576   Si       0.54077    0.30614    0.70272    1.000
    Si3577   Si       0.62226    0.29155    0.72321    1.000
    Si3578   Si       0.62822    0.36521    0.74729    1.000
    N3579    N        0.63593    0.32228    0.75051    1.000
    N3580    N        0.72599    0.27856    0.73338    1.000
    N3581    N        0.71086    0.34587    0.70832    1.000
    N3582    N        0.50529    0.45463    0.75600    1.000
    N3583    N        0.55633    0.40861    0.73676    1.000
    Si3584   Si       0.52546    0.43728    0.72065    1.000
    N3585    N        0.57830    0.48390    0.73705    1.000
    N3586    N        0.49581    0.40915    0.70294    1.000
    N3587    N        0.66004    0.39416    0.76019    1.000
    Si3588   Si       0.74072    0.43943    0.73739    1.000
    N3589    N        0.63322    0.42996    0.70619    1.000
    Si3590   Si       0.66629    0.43014    0.73625    1.000
    N3591    N        0.66792    0.47423    0.74638    1.000
    N3592    N        0.70498    0.42394    0.71691    1.000
    N3593    N        0.51139    0.28102    0.80370    1.000
    N3594    N        0.59928    0.37240    0.77855    1.000
    Si3595   Si       0.59631    0.35259    0.81671    1.000
    N3596    N        0.56228    0.32618    0.81784    1.000
    Si3597   Si       0.50517    0.38130    0.80581    1.000
    Si3598   Si       0.50874    0.25616    0.76766    1.000
    N3599    N        0.67674    0.27302    0.79128    1.000
    N3600    N        0.69012    0.34405    0.79874    1.000
    Si3601   Si       0.65922    0.31206    0.78803    1.000
    N3602    N        0.49435    0.38289    0.76392    1.000
    Si3603   Si       0.50120    0.49478    0.77141    1.000
    N3604    N        0.59302    0.44461    0.79185    1.000
    Si3605   Si       0.57144    0.40810    0.78011    1.000
    Si3606   Si       0.57705    0.48478    0.77954    1.000
    N3607    N        0.53947    0.50025    0.79422    1.000
    N3608    N        0.54572    0.39683    0.81359    1.000
    N3609    N        0.61418    0.50605    0.80128    1.000
    Si3610   Si       0.67620    0.38518    0.80054    1.000
    Si3611   Si       0.62496    0.46432    0.81235    1.000
    N3612    N        0.66881    0.46474    0.81169    1.000
    Si3613   Si       0.69370    0.48134    0.78151    1.000
    N3614    N        0.73399    0.47324    0.76742    1.000
    N3615    N        0.71015    0.41166    0.81246    1.000
    Si3616   Si       0.54434    0.29063    0.83129    1.000
    N3617    N        0.53146    0.29977    0.87377    1.000
    N3618    N        0.59527    0.37716    0.85166    1.000
    N3619    N        0.48714    0.34809    0.82733    1.000
    N3620    N        0.52907    0.36723    0.87864    1.000
    Si3621   Si       0.68243    0.26036    0.83265    1.000
    N3622    N        0.73089    0.33347    0.86979    1.000
    N3623    N        0.68491    0.30076    0.85092    1.000
    Si3624   Si       0.64621    0.31602    0.86010    1.000
    Si3625   Si       0.71630    0.32182    0.82906    1.000
    N3626    N        0.62947    0.32544    0.82124    1.000
    Si3627   Si       0.63559    0.38296    0.87039    1.000
    N3628    N        0.62157    0.28614    0.87889    1.000
    Si3629   Si       0.55636    0.39367    0.85641    1.000
    N3630    N        0.55128    0.43142    0.87827    1.000
    N3631    N        0.61617    0.46153    0.85622    1.000
    N3632    N        0.65695    0.39967    0.83772    1.000
    N3633    N        0.70819    0.44772    0.87030    1.000
    Si3634   Si       0.68336    0.43467    0.83797    1.000
    N3635    N        0.58299    0.33399    0.91456    1.000
    Si3636   Si       0.60096    0.29415    0.91593    1.000
    Si3637   Si       0.54218    0.33136    0.90117    1.000
    N3638    N        0.56700    0.26546    0.91701    1.000
    Si3639   Si       0.52538    0.26396    0.90074    1.000
    N3640    N        0.51700    0.32221    0.93764    1.000
    Si3641   Si       0.70072    0.31422    0.89411    1.000
    N3642    N        0.70543    0.27130    0.90573    1.000
    N3643    N        0.65712    0.34845    0.88623    1.000
    N3644    N        0.52921    0.49081    0.91605    1.000
    N3645    N        0.59782    0.46593    0.91890    1.000
    Si3646   Si       0.51699    0.45232    0.89581    1.000
    Si3647   Si       0.58752    0.42637    0.90368    1.000
    Si3648   Si       0.56874    0.49423    0.93630    1.000
    N3649    N        0.57382    0.39849    0.93450    1.000
    N3650    N        0.65967    0.47972    0.91070    1.000
    Si3651   Si       0.64299    0.43952    0.93433    1.000
    Si3652   Si       0.62279    0.48899    0.88926    1.000
    N3653    N        0.62935    0.40955    0.90402    1.000
    Si3654   Si       0.69854    0.46525    0.91041    1.000
    N3655    N        0.73041    0.49276    0.92011    1.000
    N3656    N        0.56748    0.35256    0.97895    1.000
    Si3657   Si       0.52718    0.33531    0.97836    1.000
    Si3658   Si       0.59483    0.36258    0.94407    1.000
    N3659    N        0.50598    0.37418    0.98032    1.000
    N3660    N        0.58106    0.25980    0.98375    1.000
    N3661    N        0.63592    0.36510    0.96033    1.000
    Si3662   Si       0.70648    0.27792    0.94801    1.000
    Si3663   Si       0.65950    0.32897    0.96097    1.000
    N3664    N        0.62818    0.29867    0.94854    1.000
    Si3665   Si       0.73765    0.34268    0.95823    1.000
    N3666    N        0.70039    0.32184    0.94165    1.000
    N3667    N        0.73799    0.38645    0.95768    1.000
    Si3668   Si       0.63085    0.26116    0.97230    1.000
    N3669    N        0.67790    0.25778    0.97219    1.000
    N3670    N        0.57320    0.48573    0.97756    1.000
    Si3671   Si       0.53731    0.40278    0.96022    1.000
    N3672    N        0.49465    0.49534    0.98576    1.000
    Si3673   Si       0.58873    0.44778    0.99458    1.000
    N3674    N        0.55246    0.42258    0.99487    1.000
    N3675    N        0.51241    0.43058    0.93675    1.000
    Si3676   Si       0.64263    0.39692    0.98861    1.000
    N3677    N        0.62475    0.43469    0.97313    1.000
    Si3678   Si       0.71468    0.41955    0.97309    1.000
    N3679    N        0.68838    0.43435    0.93979    1.000
    N3680    N        0.52986    0.61260    0.04061    1.000
    Si3681   Si       0.50450    0.60247    0.00893    1.000
    Si3682   Si       0.51872    0.52849    0.00069    1.000
    N3683    N        0.60392    0.54088    0.99886    1.000
    N3684    N        0.54329    0.50840    0.03310    1.000
    N3685    N        0.49229    0.56059    0.01466    1.000
    N3686    N        0.73834    0.55896    0.02587    1.000
    N3687    N        0.66957    0.55880    0.00709    1.000
    Si3688   Si       0.70755    0.53682    0.00509    1.000
    N3689    N        0.62713    0.61050    0.02813    1.000
    Si3690   Si       0.62854    0.56641    0.02570    1.000
    Si3691   Si       0.66103    0.63343    0.04355    1.000
    N3692    N        0.49624    0.68030    0.03534    1.000
    N3693    N        0.53243    0.74581    0.02920    1.000
    N3694    N        0.56760    0.66571    0.03201    1.000
    Si3695   Si       0.56564    0.71230    0.03692    1.000
    Si3696   Si       0.60572    0.64921    0.02176    1.000
    Si3697   Si       0.50250    0.72200    0.05316    1.000
    Si3698   Si       0.53019    0.65697    0.05440    1.000
    N3699    N        0.69733    0.64153    0.02093    1.000
    Si3700   Si       0.72920    0.65843    0.05048    1.000
    N3701    N        0.63452    0.66839    0.04762    1.000
    Si3702   Si       0.70408    0.73154    0.03878    1.000
    N3703    N        0.66149    0.73277    0.03797    1.000
    Si3704   Si       0.64352    0.75560    0.00403    1.000
    N3705    N        0.71401    0.71820    0.99708    1.000
    Si3706   Si       0.52381    0.59777    0.08086    1.000
    N3707    N        0.54579    0.56916    0.10611    1.000
    Si3708   Si       0.51054    0.54427    0.10955    1.000
    N3709    N        0.72930    0.53932    0.09646    1.000
    Si3710   Si       0.64236    0.58043    0.09423    1.000
    N3711    N        0.66889    0.61268    0.08210    1.000
    N3712    N        0.62694    0.55049    0.06707    1.000
    Si3713   Si       0.63377    0.52177    0.10202    1.000
    Si3714   Si       0.70372    0.62078    0.10705    1.000
    N3715    N        0.73696    0.62537    0.07666    1.000
    N3716    N        0.52098    0.63927    0.09518    1.000
    N3717    N        0.50767    0.75112    0.09153    1.000
    Si3718   Si       0.53457    0.72240    0.10909    1.000
    N3719    N        0.53849    0.69959    0.07205    1.000
    N3720    N        0.59999    0.72768    0.06294    1.000
    Si3721   Si       0.59287    0.75975    0.09018    1.000
    N3722    N        0.65602    0.70935    0.10468    1.000
    N3723    N        0.71865    0.69834    0.06363    1.000
    Si3724   Si       0.63800    0.70660    0.06549    1.000
    Si3725   Si       0.58011    0.56567    0.13458    1.000
    N3726    N        0.60016    0.52620    0.13111    1.000
    N3727    N        0.49727    0.55025    0.15104    1.000
    N3728    N        0.61119    0.59387    0.12280    1.000
    N3729    N        0.55930    0.56911    0.17187    1.000
    N3730    N        0.71149    0.59272    0.13891    1.000
    Si3731   Si       0.70525    0.54956    0.12931    1.000
    N3732    N        0.71727    0.51854    0.16074    1.000
    N3733    N        0.66433    0.54737    0.11726    1.000
    N3734    N        0.55322    0.64116    0.15662    1.000
    N3735    N        0.57216    0.73877    0.12234    1.000
    Si3736   Si       0.59940    0.73424    0.15624    1.000
    N3737    N        0.51602    0.69709    0.13861    1.000
    Si3738   Si       0.51893    0.65393    0.13498    1.000
    Si3739   Si       0.49368    0.71973    0.16759    1.000
    Si3740   Si       0.59083    0.65878    0.17290    1.000
    Si3741   Si       0.71759    0.67295    0.16292    1.000
    N3742    N        0.64143    0.73076    0.16131    1.000
    Si3743   Si       0.66005    0.68402    0.14242    1.000
    Si3744   Si       0.65889    0.74818    0.12471    1.000
    N3745    N        0.69655    0.65830    0.12868    1.000
    N3746    N        0.63389    0.65840    0.16357    1.000
    N3747    N        0.52735    0.53296    0.22065    1.000
    Si3748   Si       0.55671    0.60971    0.18923    1.000
    N3749    N        0.52632    0.60000    0.21914    1.000
    Si3750   Si       0.52925    0.53627    0.17764    1.000
    N3751    N        0.68562    0.61588    0.20253    1.000
    Si3752   Si       0.72742    0.53844    0.19863    1.000
    N3753    N        0.69357    0.54957    0.22234    1.000
    Si3754   Si       0.72236    0.60634    0.17831    1.000
    N3755    N        0.58639    0.63433    0.20919    1.000
    Si3756   Si       0.58286    0.72816    0.21569    1.000
    N3757    N        0.51934    0.72460    0.20274    1.000
    N3758    N        0.49624    0.66307    0.21903    1.000
    N3759    N        0.58448    0.70032    0.17975    1.000
    Si3760   Si       0.52587    0.69182    0.22984    1.000
    N3761    N        0.68350    0.68934    0.18576    1.000
    N3762    N        0.62577    0.72473    0.22771    1.000
    Si3763   Si       0.66134    0.72447    0.20113    1.000
    Si3764   Si       0.66088    0.65310    0.20042    1.000
    N3765    N        0.74259    0.64404    0.18382    1.000
    N3766    N        0.58512    0.56344    0.25085    1.000
    Si3767   Si       0.54297    0.56607    0.24367    1.000
    Si3768   Si       0.49802    0.62559    0.24156    1.000
    N3769    N        0.52352    0.56934    0.28214    1.000
    Si3770   Si       0.62391    0.55463    0.26624    1.000
    N3771    N        0.64941    0.59038    0.25809    1.000
    N3772    N        0.72220    0.59708    0.25977    1.000
    Si3773   Si       0.68334    0.51898    0.25123    1.000
    Si3774   Si       0.68589    0.58947    0.23725    1.000
    N3775    N        0.64010    0.51528    0.25181    1.000
    Si3776   Si       0.64066    0.62943    0.27631    1.000
    N3777    N        0.70467    0.53030    0.28781    1.000
    N3778    N        0.51754    0.63691    0.27925    1.000
    N3779    N        0.59839    0.63975    0.27870    1.000
    Si3780   Si       0.56116    0.72227    0.27951    1.000
    Si3781   Si       0.59996    0.65984    0.24115    1.000
    N3782    N        0.51016    0.70888    0.26794    1.000
    N3783    N        0.56834    0.69215    0.24223    1.000
    N3784    N        0.56098    0.75429    0.24626    1.000
    N3785    N        0.73845    0.67198    0.24999    1.000
    Si3786   Si       0.73985    0.63367    0.27221    1.000
    N3787    N        0.73741    0.74749    0.24563    1.000
    Si3788   Si       0.63457    0.74085    0.26607    1.000
    N3789    N        0.64343    0.65524    0.23892    1.000
    N3790    N        0.67581    0.74719    0.27854    1.000
    Si3791   Si       0.51788    0.53697    0.30974    1.000
    Si3792   Si       0.51570    0.60307    0.30852    1.000
    N3793    N        0.54951    0.61517    0.33269    1.000
    N3794    N        0.63108    0.55131    0.30823    1.000
    N3795    N        0.69824    0.58598    0.31915    1.000
    Si3796   Si       0.69592    0.62638    0.33352    1.000
    Si3797   Si       0.66162    0.56635    0.33396    1.000
    Si3798   Si       0.72736    0.56819    0.29145    1.000
    Si3799   Si       0.57395    0.64799    0.31463    1.000
    N3800    N        0.54791    0.68593    0.31453    1.000
    N3801    N        0.54623    0.74984    0.31416    1.000
    Si3802   Si       0.54255    0.71739    0.34234    1.000
    Si3803   Si       0.51038    0.67647    0.29519    1.000
    N3804    N        0.60559    0.72083    0.29177    1.000
    Si3805   Si       0.61918    0.72915    0.33172    1.000
    N3806    N        0.65804    0.63849    0.31634    1.000
    N3807    N        0.72493    0.65131    0.31189    1.000
    N3808    N        0.73176    0.72323    0.31187    1.000
    N3809    N        0.65992    0.71990    0.34467    1.000
    Si3810   Si       0.69085    0.73736    0.31985    1.000
    Si3811   Si       0.51849    0.53566    0.38607    1.000
    Si3812   Si       0.56507    0.62342    0.37254    1.000
    N3813    N        0.58283    0.59596    0.39881    1.000
    N3814    N        0.53681    0.54378    0.34853    1.000
    Si3815   Si       0.71707    0.52122    0.37487    1.000
    N3816    N        0.70670    0.61905    0.37412    1.000
    N3817    N        0.63990    0.59335    0.36229    1.000
    N3818    N        0.67748    0.53017    0.35470    1.000
    Si3819   Si       0.62612    0.58334    0.40109    1.000
    Si3820   Si       0.65106    0.50769    0.39227    1.000
    N3821    N        0.59889    0.65333    0.35051    1.000
    N3822    N        0.58510    0.72145    0.36174    1.000
    Si3823   Si       0.58818    0.68218    0.38160    1.000
    Si3824   Si       0.51425    0.67950    0.39809    1.000
    N3825    N        0.51259    0.71705    0.37346    1.000
    N3826    N        0.55113    0.65882    0.39282    1.000
    Si3827   Si       0.68217    0.63062    0.40586    1.000
    Si3828   Si       0.63798    0.63710    0.35359    1.000
    N3829    N        0.71795    0.69596    0.37690    1.000
    N3830    N        0.65778    0.66068    0.38258    1.000
    Si3831   Si       0.67434    0.70136    0.38099    1.000
    Si3832   Si       0.56430    0.58344    0.43562    1.000
    N3833    N        0.53518    0.55217    0.42573    1.000
    N3834    N        0.55254    0.62098    0.45377    1.000
    Si3835   Si       0.51047    0.54619    0.46256    1.000
    N3836    N        0.58879    0.56338    0.46381    1.000
    Si3837   Si       0.61526    0.53185    0.45370    1.000
    N3838    N        0.65820    0.59971    0.42562    1.000
    N3839    N        0.62973    0.54200    0.41247    1.000
    Si3840   Si       0.66559    0.57849    0.46519    1.000
    N3841    N        0.69520    0.50228    0.40653    1.000
    N3842    N        0.52299    0.68877    0.44011    1.000
    Si3843   Si       0.56062    0.66439    0.44300    1.000
    N3844    N        0.59496    0.68736    0.42471    1.000
    N3845    N        0.60630    0.75721    0.41315    1.000
    Si3846   Si       0.73225    0.68485    0.41541    1.000
    Si3847   Si       0.62205    0.72072    0.43066    1.000
    N3848    N        0.73123    0.72166    0.43880    1.000
    N3849    N        0.66361    0.71902    0.41776    1.000
    N3850    N        0.71068    0.65046    0.43203    1.000
    Si3851   Si       0.69326    0.74462    0.43819    1.000
    N3852    N        0.52786    0.54835    0.50053    1.000
    Si3853   Si       0.57099    0.56198    0.50348    1.000
    N3854    N        0.57353    0.60259    0.51899    1.000
    N3855    N        0.51061    0.62396    0.51284    1.000
    Si3856   Si       0.55212    0.63083    0.49661    1.000
    N3857    N        0.64610    0.60792    0.49076    1.000
    N3858    N        0.71516    0.51876    0.50285    1.000
    N3859    N        0.65356    0.53835    0.47786    1.000
    Si3860   Si       0.73328    0.55075    0.47954    1.000
    Si3861   Si       0.71807    0.62923    0.46978    1.000
    N3862    N        0.70796    0.58686    0.47109    1.000
    N3863    N        0.57378    0.66677    0.49078    1.000
    N3864    N        0.52737    0.71225    0.50930    1.000
    Si3865   Si       0.60437    0.69413    0.50559    1.000
    Si3866   Si       0.50805    0.71575    0.47331    1.000
    N3867    N        0.59439    0.73206    0.52782    1.000
    Si3868   Si       0.65954    0.63781    0.51694    1.000
    N3869    N        0.69929    0.65140    0.50283    1.000
    Si3870   Si       0.61991    0.75520    0.49866    1.000
    N3871    N        0.62677    0.72034    0.47473    1.000
    Si3872   Si       0.57564    0.60375    0.56474    1.000
    Si3873   Si       0.57674    0.52678    0.57080    1.000
    N3874    N        0.53282    0.60284    0.57430    1.000
    N3875    N        0.53320    0.52524    0.56859    1.000
    N3876    N        0.59068    0.56676    0.58209    1.000
    Si3877   Si       0.51856    0.51652    0.52828    1.000
    N3878    N        0.58597    0.52971    0.52526    1.000
    Si3879   Si       0.50872    0.63359    0.55472    1.000
    Si3880   Si       0.67644    0.51898    0.57844    1.000
    N3881    N        0.66555    0.62693    0.55693    1.000
    N3882    N        0.71883    0.51572    0.57120    1.000
    N3883    N        0.66372    0.55909    0.58028    1.000
    N3884    N        0.54213    0.73791    0.57120    1.000
    Si3885   Si       0.51774    0.70866    0.55175    1.000
    N3886    N        0.52943    0.67050    0.56755    1.000
    N3887    N        0.63610    0.67175    0.52802    1.000
    N3888    N        0.72434    0.74838    0.54939    1.000
    N3889    N        0.71105    0.67687    0.56857    1.000
    Si3890   Si       0.69450    0.74331    0.58428    1.000
    Si3891   Si       0.72840    0.65737    0.53345    1.000
    Si3892   Si       0.66407    0.67766    0.56596    1.000
    N3893    N        0.65888    0.72176    0.56686    1.000
    Si3894   Si       0.52055    0.52196    0.60981    1.000
    Si3895   Si       0.53529    0.59468    0.61802    1.000
    N3896    N        0.50968    0.56102    0.62452    1.000
    N3897    N        0.55996    0.51744    0.62755    1.000
    N3898    N        0.56823    0.58828    0.64808    1.000
    Si3899   Si       0.62790    0.56656    0.60593    1.000
    N3900    N        0.64186    0.60531    0.61837    1.000
    N3901    N        0.71361    0.60427    0.60870    1.000
    Si3902   Si       0.67483    0.59989    0.58813    1.000
    N3903    N        0.62051    0.54307    0.64060    1.000
    N3904    N        0.52447    0.63635    0.62696    1.000
    Si3905   Si       0.53904    0.73536    0.61403    1.000
    Si3906   Si       0.55201    0.66012    0.60434    1.000
    N3907    N        0.56239    0.69878    0.62488    1.000
    N3908    N        0.49643    0.72609    0.61775    1.000
    N3909    N        0.58677    0.63897    0.58853    1.000
    Si3910   Si       0.66731    0.69647    0.63897    1.000
    Si3911   Si       0.73012    0.68771    0.60604    1.000
    N3912    N        0.70114    0.71953    0.61905    1.000
    N3913    N        0.65308    0.66948    0.60910    1.000
    Si3914   Si       0.62009    0.64160    0.61641    1.000
    Si3915   Si       0.57793    0.61997    0.67570    1.000
    N3916    N        0.57657    0.53465    0.69512    1.000
    Si3917   Si       0.57964    0.54520    0.65299    1.000
    N3918    N        0.53833    0.62791    0.69302    1.000
    Si3919   Si       0.72295    0.53645    0.68141    1.000
    N3920    N        0.68976    0.62037    0.67607    1.000
    Si3921   Si       0.71010    0.59103    0.65126    1.000
    N3922    N        0.69061    0.55165    0.65453    1.000
    Si3923   Si       0.65756    0.52323    0.65085    1.000
    Si3924   Si       0.50634    0.63138    0.66449    1.000
    N3925    N        0.50990    0.71639    0.68880    1.000
    Si3926   Si       0.59305    0.69654    0.65615    1.000
    N3927    N        0.59964    0.65288    0.65323    1.000
    N3928    N        0.58038    0.70870    0.69655    1.000
    Si3929   Si       0.72019    0.74704    0.64875    1.000
    N3930    N        0.69070    0.68386    0.67512    1.000
    Si3931   Si       0.73498    0.68688    0.68093    1.000
    N3932    N        0.63066    0.71646    0.65044    1.000
    Si3933   Si       0.64538    0.75041    0.67463    1.000
    Si3934   Si       0.67223    0.65139    0.70086    1.000
    Si3935   Si       0.59581    0.56148    0.72468    1.000
    N3936    N        0.50597    0.60110    0.74736    1.000
    N3937    N        0.50113    0.53083    0.74803    1.000
    N3938    N        0.60153    0.60382    0.70810    1.000
    N3939    N        0.56617    0.56610    0.75551    1.000
    Si3940   Si       0.60850    0.63689    0.73521    1.000
    Si3941   Si       0.52546    0.56467    0.76200    1.000
    N3942    N        0.63698    0.55025    0.73929    1.000
    N3943    N        0.70795    0.54066    0.72178    1.000
    Si3944   Si       0.66806    0.51645    0.73035    1.000
    Si3945   Si       0.53216    0.63698    0.73508    1.000
    N3946    N        0.50310    0.66813    0.74658    1.000
    N3947    N        0.54194    0.72845    0.75057    1.000
    N3948    N        0.57055    0.65421    0.74894    1.000
    Si3949   Si       0.54508    0.73106    0.70732    1.000
    N3950    N        0.60535    0.70794    0.76431    1.000
    N3951    N        0.63155    0.66562    0.71303    1.000
    Si3952   Si       0.61575    0.70595    0.72266    1.000
    Si3953   Si       0.67297    0.75913    0.73997    1.000
    N3954    N        0.68932    0.64962    0.74314    1.000
    N3955    N        0.71532    0.74443    0.74274    1.000
    Si3956   Si       0.73033    0.65928    0.75402    1.000
    N3957    N        0.64575    0.73605    0.71610    1.000
    N3958    N        0.51627    0.56713    0.80393    1.000
    Si3959   Si       0.61206    0.61247    0.80842    1.000
    N3960    N        0.56943    0.61726    0.81006    1.000
    N3961    N        0.62524    0.57003    0.80962    1.000
    Si3962   Si       0.65222    0.55499    0.78049    1.000
    N3963    N        0.68222    0.52507    0.77867    1.000
    N3964    N        0.68748    0.58543    0.77512    1.000
    Si3965   Si       0.67300    0.62426    0.77492    1.000
    N3966    N        0.63072    0.62272    0.77016    1.000
    Si3967   Si       0.71466    0.55205    0.76418    1.000
    N3968    N        0.50242    0.63600    0.80837    1.000
    N3969    N        0.54661    0.68854    0.80617    1.000
    Si3970   Si       0.56360    0.69430    0.76644    1.000
    N3971    N        0.51277    0.75113    0.81398    1.000
    N3972    N        0.68515    0.64503    0.81076    1.000
    N3973    N        0.73856    0.69027    0.78321    1.000
    Si3974   Si       0.71335    0.72658    0.78146    1.000
    N3975    N        0.66475    0.74561    0.78140    1.000
    Si3976   Si       0.62830    0.72525    0.79520    1.000
    N3977    N        0.71519    0.74915    0.81728    1.000
    N3978    N        0.57062    0.53899    0.84813    1.000
    N3979    N        0.50352    0.52500    0.85485    1.000
    Si3980   Si       0.53500    0.53104    0.82506    1.000
    Si3981   Si       0.61068    0.53466    0.83215    1.000
    N3982    N        0.72969    0.58907    0.84238    1.000
    N3983    N        0.62999    0.52910    0.87143    1.000
    Si3984   Si       0.72442    0.62574    0.81721    1.000
    Si3985   Si       0.62866    0.61784    0.88004    1.000
    N3986    N        0.49759    0.71359    0.86117    1.000
    Si3987   Si       0.53676    0.71867    0.83988    1.000
    N3988    N        0.54466    0.65116    0.86420    1.000
    N3989    N        0.56322    0.71682    0.87461    1.000
    Si3990   Si       0.54239    0.64832    0.82103    1.000
    N3991    N        0.64402    0.70607    0.83241    1.000
    Si3992   Si       0.65864    0.66629    0.84014    1.000
    N3993    N        0.62766    0.63732    0.84066    1.000
    Si3994   Si       0.62873    0.74333    0.85574    1.000
    N3995    N        0.67942    0.66364    0.87811    1.000
    N3996    N        0.53591    0.57627    0.90184    1.000
    N3997    N        0.58415    0.53190    0.92258    1.000
    Si3998   Si       0.57483    0.55556    0.88722    1.000
    Si3999   Si       0.49863    0.55833    0.88432    1.000
    Si4000   Si       0.55570    0.61440    0.88459    1.000
    N4001    N        0.59236    0.59471    0.87866    1.000
    Si4002   Si       0.65753    0.55092    0.89536    1.000
    N4003    N        0.69898    0.54439    0.89207    1.000
    N4004    N        0.71849    0.62357    0.90370    1.000
    Si4005   Si       0.72824    0.53755    0.92254    1.000
    N4006    N        0.66383    0.59459    0.88329    1.000
    Si4007   Si       0.70784    0.58649    0.88097    1.000
    N4008    N        0.64351    0.55334    0.93696    1.000
    N4009    N        0.55845    0.63740    0.92255    1.000
    N4010    N        0.51583    0.68471    0.92291    1.000
    Si4011   Si       0.58800    0.73377    0.90367    1.000
    Si4012   Si       0.55485    0.67814    0.90090    1.000
    N4013    N        0.58543    0.69546    0.92872    1.000
    Si4014   Si       0.49393    0.71498    0.90326    1.000
    N4015    N        0.50515    0.75205    0.92807    1.000
    N4016    N        0.74110    0.69482    0.90600    1.000
    N4017    N        0.63050    0.63698    0.91960    1.000
    Si4018   Si       0.72231    0.66312    0.88274    1.000
    Si4019   Si       0.67646    0.63821    0.92054    1.000
    Si4020   Si       0.73153    0.73563    0.91890    1.000
    N4021    N        0.63031    0.72594    0.89478    1.000
    Si4022   Si       0.64960    0.74122    0.93089    1.000
    N4023    N        0.69120    0.73093    0.93399    1.000
    N4024    N        0.58411    0.58936    0.95411    1.000
    N4025    N        0.52842    0.54130    0.96213    1.000
    N4026    N        0.51737    0.61112    0.96717    1.000
    Si4027   Si       0.60636    0.55117    0.95517    1.000
    Si4028   Si       0.54224    0.58144    0.94633    1.000
    Si4029   Si       0.49781    0.51178    0.94130    1.000
    Si4030   Si       0.59598    0.63064    0.94421    1.000
    Si4031   Si       0.67369    0.56537    0.96332    1.000
    N4032    N        0.71308    0.54550    0.96220    1.000
    N4033    N        0.68371    0.60642    0.95474    1.000
    Si4034   Si       0.60649    0.69727    0.96689    1.000
    N4035    N        0.60985    0.65510    0.98004    1.000
    N4036    N        0.57962    0.71841    0.99523    1.000
    Si4037   Si       0.51653    0.64320    0.93780    1.000
    N4038    N        0.69076    0.66651    0.95251    1.000
    Si4039   Si       0.70424    0.63350    0.97963    1.000
    Si4040   Si       0.68407    0.70488    0.96860    1.000
    N4041    N        0.64263    0.72252    0.97211    1.000
    N4042    N        0.57181    0.83838    0.01498    1.000
    Si4043   Si       0.59415    0.80762    0.03738    1.000
    Si4044   Si       0.60081    0.86911    0.02969    1.000
    Si4045   Si       0.51611    0.78242    0.01046    1.000
    N4046    N        0.60590    0.77652    0.00659    1.000
    N4047    N        0.50935    0.80523    0.04700    1.000
    Si4048   Si       0.49663    0.84576    0.04324    1.000
    N4049    N        0.49636    0.85602    0.00237    1.000
    Si4050   Si       0.69877    0.80278    0.02110    1.000
    N4051    N        0.68809    0.84203    0.03666    1.000
    N4052    N        0.71470    0.77352    0.04766    1.000
    N4053    N        0.62316    0.83606    0.05012    1.000
    N4054    N        0.60179    0.95635    0.02548    1.000
    N4055    N        0.54007    0.98057    0.01054    1.000
    N4056    N        0.54629    0.90511    0.01974    1.000
    Si4057   Si       0.50379    0.98398    0.03265    1.000
    Si4058   Si       0.56285    0.94258    0.00694    1.000
    N4059    N        0.67281    0.93249    0.00815    1.000
    Si4060   Si       0.68350    0.92924    0.05120    1.000
    Si4061   Si       0.63925    0.96058    0.00316    1.000
    N4062    N        0.65844    0.00080    0.00211    1.000
    N4063    N        0.52174    0.87015    0.06827    1.000
    Si4064   Si       0.52860    0.79056    0.08285    1.000
    N4065    N        0.57089    0.79094    0.07234    1.000
    Si4066   Si       0.51530    0.85679    0.11024    1.000
    Si4067   Si       0.66025    0.85171    0.06934    1.000
    N4068    N        0.66141    0.83981    0.11018    1.000
    N4069    N        0.62678    0.77518    0.11261    1.000
    N4070    N        0.57258    0.00721    0.07280    1.000
    N4071    N        0.59156    0.89438    0.06335    1.000
    N4072    N        0.50197    0.98276    0.07791    1.000
    N4073    N        0.55152    0.94144    0.07813    1.000
    Si4074   Si       0.58655    0.96473    0.06672    1.000
    Si4075   Si       0.52541    0.96140    0.10723    1.000
    Si4076   Si       0.55007    0.90233    0.06245    1.000
    N4077    N        0.67351    0.97126    0.06213    1.000
    N4078    N        0.72506    0.91815    0.05313    1.000
    N4079    N        0.65988    0.89723    0.06816    1.000
    N4080    N        0.61850    0.95440    0.09210    1.000
    Si4081   Si       0.64583    0.98731    0.09025    1.000
    Si4082   Si       0.62348    0.91063    0.09021    1.000
    Si4083   Si       0.58587    0.86767    0.15047    1.000
    N4084    N        0.58980    0.82545    0.14922    1.000
    Si4085   Si       0.50360    0.79735    0.15600    1.000
    N4086    N        0.54608    0.87779    0.13348    1.000
    N4087    N        0.51949    0.81365    0.11870    1.000
    Si4088   Si       0.68403    0.84572    0.14822    1.000
    N4089    N        0.71802    0.87092    0.13342    1.000
    Si4090   Si       0.62887    0.81459    0.12868    1.000
    N4091    N        0.65349    0.81334    0.16452    1.000
    N4092    N        0.69683    0.76549    0.13876    1.000
    N4093    N        0.71296    0.81916    0.17511    1.000
    Si4094   Si       0.74045    0.77089    0.13533    1.000
    N4095    N        0.67146    0.88058    0.17515    1.000
    Si4096   Si       0.52260    0.90664    0.15765    1.000
    N4097    N        0.54311    0.98752    0.13697    1.000
    N4098    N        0.50262    0.93334    0.12833    1.000
    Si4099   Si       0.71996    0.91301    0.13969    1.000
    Si4100   Si       0.64710    0.91086    0.15600    1.000
    N4101    N        0.72794    0.99281    0.13517    1.000
    N4102    N        0.65741    0.00412    0.12816    1.000
    Si4103   Si       0.68790    0.97827    0.14551    1.000
    N4104    N        0.68106    0.93464    0.13593    1.000
    N4105    N        0.61601    0.89316    0.13066    1.000
    N4106    N        0.53153    0.79497    0.19015    1.000
    N4107    N        0.58243    0.82021    0.22310    1.000
    Si4108   Si       0.57353    0.80499    0.18455    1.000
    Si4109   Si       0.52090    0.76469    0.22081    1.000
    Si4110   Si       0.58232    0.86139    0.23079    1.000
    N4111    N        0.58826    0.76359    0.18736    1.000
    Si4112   Si       0.50611    0.87114    0.23305    1.000
    N4113    N        0.58806    0.88012    0.19134    1.000
    N4114    N        0.72715    0.86509    0.22316    1.000
    N4115    N        0.68103    0.76175    0.20975    1.000
    Si4116   Si       0.68494    0.78794    0.17584    1.000
    N4117    N        0.50197    0.88307    0.18899    1.000
    N4118    N        0.55835    0.99424    0.20860    1.000
    Si4119   Si       0.58716    0.92211    0.19689    1.000
    N4120    N        0.55041    0.93506    0.17877    1.000
    Si4121   Si       0.53506    0.97583    0.17723    1.000
    N4122    N        0.49243    0.97238    0.18710    1.000
    Si4123   Si       0.70116    0.89637    0.20383    1.000
    Si4124   Si       0.65054    0.95727    0.21137    1.000
    N4125    N        0.67701    0.92636    0.22749    1.000
    N4126    N        0.73145    0.92003    0.18207    1.000
    N4127    N        0.62623    0.93684    0.18293    1.000
    N4128    N        0.67960    0.98081    0.18766    1.000
    Si4129   Si       0.58256    0.79078    0.25529    1.000
    N4130    N        0.49455    0.83506    0.25607    1.000
    N4131    N        0.54579    0.88000    0.24646    1.000
    N4132    N        0.61978    0.87294    0.25318    1.000
    N4133    N        0.62381    0.78324    0.26546    1.000
    N4134    N        0.70709    0.80756    0.27084    1.000
    Si4135   Si       0.70007    0.76958    0.24986    1.000
    Si4136   Si       0.73813    0.83212    0.25180    1.000
    Si4137   Si       0.57239    0.97311    0.24516    1.000
    N4138    N        0.53472    0.95291    0.26453    1.000
    Si4139   Si       0.55027    0.91290    0.27460    1.000
    N4140    N        0.58953    0.93227    0.23989    1.000
    N4141    N        0.49358    0.00482    0.27449    1.000
    Si4142   Si       0.50394    0.96733    0.29186    1.000
    N4143    N        0.64562    0.93177    0.29000    1.000
    Si4144   Si       0.61476    0.91170    0.26964    1.000
    N4145    N        0.70604    0.89533    0.28066    1.000
    N4146    N        0.70652    0.96452    0.28471    1.000
    Si4147   Si       0.68298    0.93152    0.27055    1.000
    N4148    N        0.62257    0.98639    0.23023    1.000
    N4149    N        0.51487    0.81603    0.32770    1.000
    Si4150   Si       0.55129    0.79322    0.32532    1.000
    N4151    N        0.57748    0.80914    0.29427    1.000
    N4152    N        0.61898    0.77260    0.33873    1.000
    Si4153   Si       0.61909    0.80089    0.30550    1.000
    N4154    N        0.65056    0.82891    0.31583    1.000
    Si4155   Si       0.69200    0.81454    0.31267    1.000
    N4156    N        0.71497    0.84599    0.33109    1.000
    N4157    N        0.69869    0.77809    0.33569    1.000
    Si4158   Si       0.64314    0.85289    0.35064    1.000
    Si4159   Si       0.59011    0.90375    0.34345    1.000
    N4160    N        0.58337    0.90829    0.30080    1.000
    N4161    N        0.52092    0.96758    0.33234    1.000
    N4162    N        0.51657    0.90409    0.30193    1.000
    Si4163   Si       0.51555    0.92416    0.33933    1.000
    Si4164   Si       0.65189    0.93629    0.33439    1.000
    N4165    N        0.72183    0.92146    0.34229    1.000
    N4166    N        0.66246    0.89345    0.34034    1.000
    Si4167   Si       0.70301    0.88706    0.32323    1.000
    N4168    N        0.67461    0.97290    0.33984    1.000
    Si4169   Si       0.71580    0.96221    0.33026    1.000
    Si4170   Si       0.57585    0.83693    0.38358    1.000
    N4171    N        0.56855    0.79877    0.36583    1.000
    Si4172   Si       0.59448    0.76520    0.37357    1.000
    N4173    N        0.59984    0.86289    0.35773    1.000
    Si4174   Si       0.49756    0.80974    0.36704    1.000
    N4175    N        0.65610    0.82836    0.38300    1.000
    Si4176   Si       0.72079    0.77780    0.37144    1.000
    N4177    N        0.69830    0.77564    0.40823    1.000
    N4178    N        0.61299    0.94012    0.35367    1.000
    Si4179   Si       0.52785    0.99092    0.36803    1.000
    N4180    N        0.49600    0.98142    0.40050    1.000
    Si4181   Si       0.55224    0.90541    0.40373    1.000
    N4182    N        0.55726    0.97139    0.39597    1.000
    N4183    N        0.55051    0.91196    0.36099    1.000
    Si4184   Si       0.59815    0.95594    0.39191    1.000
    Si4185   Si       0.73579    0.91761    0.38379    1.000
    N4186    N        0.70129    0.93014    0.40486    1.000
    Si4187   Si       0.56385    0.85039    0.44703    1.000
    N4188    N        0.59193    0.82665    0.42381    1.000
    Si4189   Si       0.60758    0.79031    0.44035    1.000
    Si4190   Si       0.50584    0.84429    0.41551    1.000
    N4191    N        0.54541    0.86279    0.40895    1.000
    Si4192   Si       0.49055    0.77717    0.43975    1.000
    N4193    N        0.50883    0.80214    0.40818    1.000
    N4194    N        0.52137    0.75691    0.46128    1.000
    N4195    N        0.49030    0.86395    0.45345    1.000
    N4196    N        0.69673    0.84256    0.43494    1.000
    N4197    N        0.64702    0.79970    0.45112    1.000
    Si4198   Si       0.67197    0.80894    0.41694    1.000
    Si4199   Si       0.67197    0.86958    0.45783    1.000
    Si4200   Si       0.73809    0.84166    0.42039    1.000
    N4201    N        0.52350    0.92383    0.43114    1.000
    Si4202   Si       0.60647    0.91226    0.45100    1.000
    Si4203   Si       0.52862    0.96681    0.42765    1.000
    N4204    N        0.59204    0.91839    0.41240    1.000
    N4205    N        0.53676    0.97943    0.46721    1.000
    N4206    N        0.67216    0.96612    0.46039    1.000
    N4207    N        0.62489    0.98510    0.40948    1.000
    N4208    N        0.64732    0.90055    0.43990    1.000
    Si4209   Si       0.69822    0.00131    0.44881    1.000
    Si4210   Si       0.63092    0.98242    0.45295    1.000
    N4211    N        0.73678    0.99887    0.43082    1.000
    Si4212   Si       0.68183    0.92774    0.44254    1.000
    Si4213   Si       0.54876    0.78271    0.48279    1.000
    N4214    N        0.59086    0.77792    0.47762    1.000
    Si4215   Si       0.49822    0.83179    0.48085    1.000
    N4216    N        0.58085    0.88185    0.47148    1.000
    N4217    N        0.49408    0.83513    0.52378    1.000
    N4218    N        0.53810    0.82345    0.47059    1.000
    N4219    N        0.73776    0.87100    0.52150    1.000
    N4220    N        0.65346    0.84929    0.49145    1.000
    Si4221   Si       0.66915    0.80595    0.48777    1.000
    N4222    N        0.70984    0.81379    0.51080    1.000
    Si4223   Si       0.71833    0.76923    0.51259    1.000
    N4224    N        0.64450    0.78243    0.51916    1.000
    N4225    N        0.69079    0.76098    0.47767    1.000
    Si4226   Si       0.50987    0.94301    0.51902    1.000
    Si4227   Si       0.57319    0.89429    0.51415    1.000
    N4228    N        0.55228    0.93241    0.51158    1.000
    Si4229   Si       0.57073    0.96739    0.49004    1.000
    N4230    N        0.57352    0.00289    0.51646    1.000
    N4231    N        0.60488    0.95099    0.46953    1.000
    Si4232   Si       0.67727    0.97673    0.50459    1.000
    N4233    N        0.70742    0.95030    0.52102    1.000
    Si4234   Si       0.70667    0.90719    0.51478    1.000
    N4235    N        0.69970    0.90042    0.47212    1.000
    N4236    N        0.55041    0.86856    0.54257    1.000
    Si4237   Si       0.53424    0.82918    0.54126    1.000
    N4238    N        0.59567    0.78839    0.57324    1.000
    Si4239   Si       0.57004    0.76214    0.54881    1.000
    N4240    N        0.53205    0.81596    0.58198    1.000
    N4241    N        0.54723    0.78958    0.52493    1.000
    Si4242   Si       0.63864    0.79350    0.56198    1.000
    N4243    N        0.64522    0.83802    0.55888    1.000
    Si4244   Si       0.70454    0.84383    0.54218    1.000
    Si4245   Si       0.64116    0.86960    0.52841    1.000
    N4246    N        0.71274    0.84007    0.58551    1.000
    N4247    N        0.50206    0.98346    0.53008    1.000
    N4248    N        0.49567    0.91762    0.55263    1.000
    Si4249   Si       0.52721    0.89438    0.57225    1.000
    N4250    N        0.60987    0.89767    0.53481    1.000
    Si4251   Si       0.59477    0.91201    0.57470    1.000
    N4252    N        0.73876    0.91151    0.57708    1.000
    Si4253   Si       0.64861    0.97753    0.57562    1.000
    N4254    N        0.67964    0.88456    0.53884    1.000
    N4255    N        0.64480    0.98654    0.53318    1.000
    Si4256   Si       0.56581    0.80217    0.60419    1.000
    Si4257   Si       0.50044    0.83672    0.60460    1.000
    N4258    N        0.55828    0.76952    0.63046    1.000
    N4259    N        0.50963    0.87805    0.60804    1.000
    N4260    N        0.57882    0.82707    0.63774    1.000
    N4261    N        0.60875    0.88085    0.60014    1.000
    Si4262   Si       0.60425    0.86215    0.63927    1.000
    N4263    N        0.67315    0.78161    0.59039    1.000
    Si4264   Si       0.65008    0.86328    0.59439    1.000
    N4265    N        0.64575    0.84238    0.63115    1.000
    Si4266   Si       0.70289    0.80756    0.61508    1.000
    N4267    N        0.73589    0.77828    0.62343    1.000
    Si4268   Si       0.72036    0.87995    0.60086    1.000
    Si4269   Si       0.48766    0.89752    0.64241    1.000
    Si4270   Si       0.54018    0.94975    0.61842    1.000
    N4271    N        0.52309    0.98797    0.60617    1.000
    N4272    N        0.55410    0.92574    0.58561    1.000
    Si4273   Si       0.72746    0.94869    0.59791    1.000
    N4274    N        0.68427    0.95893    0.59546    1.000
    N4275    N        0.67934    0.89203    0.61145    1.000
    N4276    N        0.62531    0.94192    0.58423    1.000
    Si4277   Si       0.65581    0.92933    0.61226    1.000
    Si4278   Si       0.57633    0.79122    0.66563    1.000
    N4279    N        0.55239    0.77292    0.69777    1.000
    N4280    N        0.49387    0.87125    0.67607    1.000
    N4281    N        0.61859    0.78510    0.68091    1.000
    Si4282   Si       0.67263    0.85622    0.66073    1.000
    N4283    N        0.70803    0.82826    0.65509    1.000
    Si4284   Si       0.69850    0.80062    0.68933    1.000
    N4285    N        0.68534    0.76634    0.66657    1.000
    N4286    N        0.64469    0.85041    0.69490    1.000
    Si4287   Si       0.49891    0.95836    0.68273    1.000
    N4288    N        0.58741    0.89321    0.66486    1.000
    Si4289   Si       0.59994    0.93684    0.66537    1.000
    N4290    N        0.51080    0.93415    0.64663    1.000
    N4291    N        0.57684    0.96378    0.64230    1.000
    N4292    N        0.64269    0.93376    0.65272    1.000
    N4293    N        0.69340    0.88866    0.68166    1.000
    Si4294   Si       0.67187    0.92659    0.68343    1.000
    N4295    N        0.69770    0.96209    0.68249    1.000
    Si4296   Si       0.68281    0.00283    0.68886    1.000
    Si4297   Si       0.53186    0.80311    0.72081    1.000
    Si4298   Si       0.57789    0.83810    0.75153    1.000
    N4299    N        0.55558    0.83751    0.71279    1.000
    N4300    N        0.60584    0.80687    0.74350    1.000
    N4301    N        0.59475    0.87926    0.73697    1.000
    N4302    N        0.49228    0.80213    0.70585    1.000
    Si4303   Si       0.56956    0.87765    0.70237    1.000
    N4304    N        0.71938    0.85258    0.74265    1.000
    N4305    N        0.67520    0.80078    0.72676    1.000
    Si4306   Si       0.63322    0.81232    0.71124    1.000
    Si4307   Si       0.63791    0.88012    0.72857    1.000
    Si4308   Si       0.68580    0.83090    0.76101    1.000
    N4309    N        0.65459    0.85845    0.76308    1.000
    Si4310   Si       0.49751    0.89595    0.71284    1.000
    N4311    N        0.59177    0.94749    0.70723    1.000
    Si4312   Si       0.55502    0.94225    0.72925    1.000
    N4313    N        0.53886    0.90591    0.71419    1.000
    N4314    N        0.52804    0.97199    0.71192    1.000
    N4315    N        0.64562    0.99277    0.71059    1.000
    N4316    N        0.65130    0.92074    0.72154    1.000
    Si4317   Si       0.72132    0.88510    0.71336    1.000
    Si4318   Si       0.62920    0.95712    0.72846    1.000
    N4319    N        0.55786    0.85859    0.78361    1.000
    Si4320   Si       0.53117    0.82611    0.80028    1.000
    N4321    N        0.53151    0.79911    0.76437    1.000
    N4322    N        0.49173    0.84449    0.80684    1.000
    Si4323   Si       0.51820    0.75699    0.77271    1.000
    N4324    N        0.60161    0.75148    0.81786    1.000
    N4325    N        0.61719    0.82178    0.81556    1.000
    N4326    N        0.68774    0.80936    0.79671    1.000
    Si4327   Si       0.63670    0.86011    0.80366    1.000
    Si4328   Si       0.67945    0.77153    0.81415    1.000
    Si4329   Si       0.57651    0.89610    0.77335    1.000
    N4330    N        0.55772    0.93562    0.77240    1.000
    Si4331   Si       0.55266    0.94888    0.81535    1.000
    N4332    N        0.61266    0.89667    0.79878    1.000
    N4333    N        0.70863    0.99353    0.80748    1.000
    Si4334   Si       0.62757    0.93640    0.80676    1.000
    Si4335   Si       0.62274    0.00413    0.78812    1.000
    Si4336   Si       0.70857    0.95105    0.80925    1.000
    N4337    N        0.62662    0.96316    0.77056    1.000
    N4338    N        0.55256    0.81344    0.83455    1.000
    Si4339   Si       0.59276    0.79107    0.83398    1.000
    Si4340   Si       0.54950    0.83275    0.87406    1.000
    N4341    N        0.59779    0.77452    0.87501    1.000
    N4342    N        0.50970    0.84844    0.87596    1.000
    N4343    N        0.56942    0.87176    0.87850    1.000
    N4344    N        0.65796    0.77422    0.84957    1.000
    Si4345   Si       0.69789    0.83447    0.83248    1.000
    N4346    N        0.69436    0.82104    0.87416    1.000
    N4347    N        0.66875    0.86589    0.83060    1.000
    N4348    N        0.53087    0.92670    0.84422    1.000
    N4349    N        0.59382    0.95249    0.83293    1.000
    Si4350   Si       0.60836    0.94233    0.87217    1.000
    Si4351   Si       0.49305    0.00449    0.82160    1.000
    N4352    N        0.53348    0.98810    0.82435    1.000
    Si4353   Si       0.67153    0.90344    0.84918    1.000
    N4354    N        0.70927    0.90437    0.87027    1.000
    N4355    N        0.63254    0.90602    0.86791    1.000
    N4356    N        0.64199    0.00799    0.82757    1.000
    N4357    N        0.66998    0.93535    0.81803    1.000
    N4358    N        0.55501    0.80718    0.90875    1.000
    Si4359   Si       0.50835    0.86003    0.91927    1.000
    Si4360   Si       0.59986    0.79906    0.91492    1.000
    Si4361   Si       0.53998    0.77631    0.93403    1.000
    N4362    N        0.58222    0.76053    0.93779    1.000
    Si4363   Si       0.61290    0.87332    0.88956    1.000
    N4364    N        0.64908    0.78552    0.92258    1.000
    Si4365   Si       0.72921    0.80700    0.89403    1.000
    N4366    N        0.62376    0.83190    0.88754    1.000
    N4367    N        0.71788    0.80287    0.93588    1.000
    Si4368   Si       0.65560    0.80292    0.88220    1.000
    N4369    N        0.73410    0.76384    0.88317    1.000
    Si4370   Si       0.56193    0.96097    0.93494    1.000
    N4371    N        0.57434    0.93791    0.89983    1.000
    N4372    N        0.51362    0.90379    0.90796    1.000
    N4373    N        0.52000    0.96837    0.93175    1.000
    Si4374   Si       0.54692    0.90919    0.88034    1.000
    N4375    N        0.63521    0.97037    0.88963    1.000
    N4376    N        0.68814    0.92906    0.93348    1.000
    Si4377   Si       0.65796    0.96024    0.92590    1.000
    N4378    N        0.73609    0.96354    0.90381    1.000
    Si4379   Si       0.72430    0.98586    0.93965    1.000
    N4380    N        0.62128    0.88783    0.92896    1.000
    Si4381   Si       0.72089    0.92436    0.90628    1.000
    N4382    N        0.54470    0.78865    0.97751    1.000
    Si4383   Si       0.56408    0.82990    0.97287    1.000
    N4384    N        0.53685    0.85743    0.95479    1.000
    N4385    N        0.60128    0.82607    0.95280    1.000
    Si4386   Si       0.57620    0.75940    0.98164    1.000
    N4387    N        0.67099    0.84757    0.96717    1.000
    Si4388   Si       0.67611    0.80507    0.95324    1.000
    Si4389   Si       0.63022    0.85876    0.95971    1.000
    N4390    N        0.67246    0.78452    0.99262    1.000
    N4391    N        0.72970    0.82215    0.99454    1.000
    Si4392   Si       0.70422    0.85699    0.99417    1.000
    Si4393   Si       0.52403    0.88588    0.98757    1.000
    N4394    N        0.49932    0.91985    0.97313    1.000
    N4395    N        0.56904    0.93049    0.96591    1.000
    N4396    N        0.57380    0.00133    0.94446    1.000
    Si4397   Si       0.60758    0.91606    0.96182    1.000
    N4398    N        0.68178    0.99620    0.93773    1.000
    N4399    N        0.72581    0.89114    0.98039    1.000
    Si4400   Si       0.70277    0.92833    0.97653    1.000
    N4401    N        0.61317    0.88490    0.99205    1.000
    N4402    N        0.63258    0.95120    0.96164    1.000
    N4403    N        0.73058    0.96170    0.97389    1.000
    Si4404   Si       0.75228    0.02441    0.02980    1.000
    Si4405   Si       0.82041    0.12201    0.00969    1.000
    N4406    N        0.82423    0.10950    0.04972    1.000
    N4407    N        0.95496    0.11196    0.03562    1.000
    N4408    N        0.92222    0.05366    0.01759    1.000
    Si4409   Si       0.94291    0.08809    0.99870    1.000
    Si4410   Si       0.90049    0.02097    0.00110    1.000
    N4411    N        0.99408    0.07758    0.99840    1.000
    Si4412   Si       0.82550    0.19953    0.00684    1.000
    N4413    N        0.81760    0.20959    0.04894    1.000
    N4414    N        0.84439    0.15928    0.00003    1.000
    Si4415   Si       0.78259    0.23484    0.05840    1.000
    Si4416   Si       0.93598    0.15055    0.02254    1.000
    N4417    N        0.91212    0.25204    0.00794    1.000
    N4418    N        0.90259    0.18082    0.01816    1.000
    N4419    N        0.96907    0.17679    0.00999    1.000
    Si4420   Si       0.93295    0.26017    0.04662    1.000
    Si4421   Si       0.79553    0.08326    0.07145    1.000
    N4422    N        0.81743    0.06457    0.10424    1.000
    Si4423   Si       0.85555    0.12134    0.07630    1.000
    N4424    N        0.75691    0.10607    0.06558    1.000
    N4425    N        0.77022    0.04552    0.06461    1.000
    Si4426   Si       0.80256    0.02329    0.11473    1.000
    Si4427   Si       0.93086    0.11278    0.07743    1.000
    N4428    N        0.94491    0.06792    0.08737    1.000
    N4429    N        0.88345    0.02643    0.07562    1.000
    Si4430   Si       0.97552    0.04175    0.10590    1.000
    N4431    N        0.89102    0.09655    0.06757    1.000
    Si4432   Si       0.91063    0.05742    0.06025    1.000
    N4433    N        0.75148    0.20502    0.07172    1.000
    Si4434   Si       0.83156    0.19107    0.08624    1.000
    N4435    N        0.80221    0.16856    0.10577    1.000
    Si4436   Si       0.75648    0.18171    0.10849    1.000
    N4437    N        0.86170    0.16415    0.07153    1.000
    N4438    N        0.85218    0.22337    0.11148    1.000
    Si4439   Si       0.95460    0.18740    0.08160    1.000
    N4440    N        0.92825    0.15649    0.06830    1.000
    Si4441   Si       0.89797    0.18808    0.06107    1.000
    N4442    N        0.92746    0.22022    0.07021    1.000
    N4443    N        0.77847    0.03336    0.14845    1.000
    Si4444   Si       0.84614    0.08126    0.13408    1.000
    N4445    N        0.84861    0.12318    0.11995    1.000
    N4446    N        0.83985    0.00705    0.13636    1.000
    N4447    N        0.77804    0.12606    0.15342    1.000
    N4448    N        0.88625    0.06170    0.13166    1.000
    N4449    N        0.96174    0.05256    0.14484    1.000
    Si4450   Si       0.92840    0.07562    0.12884    1.000
    N4451    N        0.92464    0.11622    0.12329    1.000
    Si4452   Si       0.88013    0.02013    0.11954    1.000
    Si4453   Si       0.88838    0.13395    0.13919    1.000
    Si4454   Si       0.81411    0.14514    0.13889    1.000
    N4455    N        0.76597    0.21451    0.13705    1.000
    N4456    N        0.83205    0.17307    0.16621    1.000
    Si4457   Si       0.86423    0.20290    0.14916    1.000
    Si4458   Si       0.76116    0.25691    0.12539    1.000
    Si4459   Si       0.73798    0.14019    0.16280    1.000
    N4460    N        0.84843    0.23236    0.17614    1.000
    N4461    N        0.89345    0.17586    0.13705    1.000
    Si4462   Si       0.93197    0.19254    0.15376    1.000
    N4463    N        0.96072    0.19431    0.12357    1.000
    N4464    N        0.77276    0.07531    0.21161    1.000
    Si4465   Si       0.79815    0.05221    0.18493    1.000
    N4466    N        0.81359    0.01693    0.20519    1.000
    Si4467   Si       0.85440    0.09890    0.20692    1.000
    N4468    N        0.82595    0.12334    0.22736    1.000
    N4469    N        0.83128    0.07763    0.17425    1.000
    N4470    N        0.88310    0.12416    0.18272    1.000
    N4471    N        0.95890    0.02431    0.20880    1.000
    Si4472   Si       0.98621    0.03153    0.17370    1.000
    N4473    N        0.74313    0.17460    0.19019    1.000
    N4474    N        0.79053    0.22509    0.20084    1.000
    Si4475   Si       0.82668    0.20012    0.19870    1.000
    Si4476   Si       0.75500    0.21496    0.17818    1.000
    N4477    N        0.91250    0.22549    0.17237    1.000
    N4478    N        0.94277    0.15868    0.18103    1.000
    Si4479   Si       0.98416    0.15904    0.19187    1.000
    Si4480   Si       0.91239    0.22539    0.21829    1.000
    Si4481   Si       0.91046    0.14781    0.20793    1.000
    N4482    N        0.89430    0.18501    0.22302    1.000
    N4483    N        0.95713    0.22422    0.22749    1.000
    N4484    N        0.81851    0.02805    0.27424    1.000
    N4485    N        0.77519    0.08551    0.27746    1.000
    Si4486   Si       0.79025    0.10338    0.23878    1.000
    Si4487   Si       0.77870    0.04350    0.28088    1.000
    N4488    N        0.76026    0.13651    0.24639    1.000
    N4489    N        0.74221    0.02705    0.26818    1.000
    N4490    N        0.93029    0.05143    0.26970    1.000
    Si4491   Si       0.89154    0.11005    0.26514    1.000
    Si4492   Si       0.88837    0.04256    0.26388    1.000
    Si4493   Si       0.96651    0.12458    0.25732    1.000
    Si4494   Si       0.96733    0.04508    0.24745    1.000
    N4495    N        0.87301    0.07699    0.24054    1.000
    N4496    N        0.92572    0.12329    0.24140    1.000
    N4497    N        0.98132    0.08472    0.24252    1.000
    N4498    N        0.82769    0.19505    0.24232    1.000
    Si4499   Si       0.82891    0.15481    0.25814    1.000
    Si4500   Si       0.79248    0.22232    0.24513    1.000
    N4501    N        0.75783    0.20152    0.25483    1.000
    Si4502   Si       0.73903    0.17037    0.23263    1.000
    N4503    N        0.89773    0.23092    0.26107    1.000
    Si4504   Si       0.88787    0.18890    0.26596    1.000
    N4505    N        0.98344    0.16029    0.23635    1.000
    N4506    N        0.86880    0.14683    0.27490    1.000
    Si4507   Si       0.83507    0.03007    0.31406    1.000
    N4508    N        0.77669    0.04106    0.32584    1.000
    N4509    N        0.83210    0.07033    0.33361    1.000
    Si4510   Si       0.79134    0.07767    0.34501    1.000
    N4511    N        0.87842    0.02846    0.30574    1.000
    Si4512   Si       0.92224    0.05718    0.31490    1.000
    N4513    N        0.96454    0.07263    0.32971    1.000
    N4514    N        0.89447    0.09174    0.30365    1.000
    Si4515   Si       0.87127    0.08768    0.34113    1.000
    N4516    N        0.93933    0.01146    0.32390    1.000
    N4517    N        0.75428    0.23884    0.31721    1.000
    Si4518   Si       0.77975    0.15821    0.32907    1.000
    N4519    N        0.81088    0.15641    0.29780    1.000
    Si4520   Si       0.85122    0.14902    0.31604    1.000
    N4521    N        0.74163    0.17107    0.31481    1.000
    Si4522   Si       0.73767    0.20791    0.29222    1.000
    Si4523   Si       0.93047    0.23377    0.29063    1.000
    N4524    N        0.86725    0.18683    0.33039    1.000
    N4525    N        0.92160    0.18684    0.29349    1.000
    N4526    N        0.97127    0.13559    0.29868    1.000
    N4527    N        0.91365    0.23613    0.33456    1.000
    N4528    N        0.97522    0.21565    0.29190    1.000
    Si4529   Si       0.96142    0.17583    0.30847    1.000
    Si4530   Si       0.90843    0.19346    0.33518    1.000
    N4531    N        0.79256    0.07497    0.39062    1.000
    Si4532   Si       0.78366    0.11712    0.39478    1.000
    N4533    N        0.85699    0.12777    0.35198    1.000
    N4534    N        0.84566    0.03127    0.40878    1.000
    N4535    N        0.78117    0.12095    0.35112    1.000
    N4536    N        0.96011    0.04151    0.39287    1.000
    N4537    N        0.95835    0.11445    0.39020    1.000
    Si4538   Si       0.94755    0.07586    0.37112    1.000
    N4539    N        0.90671    0.06763    0.35804    1.000
    Si4540   Si       0.83670    0.20066    0.35883    1.000
    N4541    N        0.84383    0.24410    0.36058    1.000
    Si4542   Si       0.85599    0.14534    0.39247    1.000
    N4543    N        0.85787    0.18796    0.39528    1.000
    Si4544   Si       0.76453    0.22697    0.35664    1.000
    N4545    N        0.79365    0.19404    0.35335    1.000
    N4546    N        0.89732    0.24755    0.39951    1.000
    Si4547   Si       0.96546    0.19360    0.38612    1.000
    N4548    N        0.97204    0.23609    0.39041    1.000
    N4549    N        0.94706    0.17925    0.35005    1.000
    Si4550   Si       0.88472    0.25905    0.35873    1.000
    N4551    N        0.78557    0.04390    0.45471    1.000
    Si4552   Si       0.82333    0.12931    0.45563    1.000
    Si4553   Si       0.80455    0.04305    0.41469    1.000
    N4554    N        0.74717    0.12433    0.41382    1.000
    N4555    N        0.81996    0.13227    0.41329    1.000
    N4556    N        0.78406    0.11691    0.46997    1.000
    N4557    N        0.85297    0.10082    0.46764    1.000
    Si4558   Si       0.87444    0.03200    0.43962    1.000
    N4559    N        0.90267    0.06689    0.43681    1.000
    Si4560   Si       0.93675    0.04060    0.42995    1.000
    Si4561   Si       0.89229    0.10593    0.44833    1.000
    N4562    N        0.93216    0.12316    0.45972    1.000
    N4563    N        0.96544    0.03567    0.46071    1.000
    N4564    N        0.89081    0.12820    0.41342    1.000
    Si4565   Si       0.74896    0.13888    0.45578    1.000
    N4566    N        0.83304    0.24385    0.42805    1.000
    N4567    N        0.76198    0.18091    0.45704    1.000
    N4568    N        0.74049    0.25402    0.44326    1.000
    N4569    N        0.88921    0.20069    0.45820    1.000
    Si4570   Si       0.93427    0.19988    0.45886    1.000
    Si4571   Si       0.93486    0.13697    0.41957    1.000
    N4572    N        0.94590    0.17934    0.42105    1.000
    N4573    N        0.94257    0.24055    0.45463    1.000
    Si4574   Si       0.93879    0.25316    0.41173    1.000
    Si4575   Si       0.86888    0.21919    0.42311    1.000
    Si4576   Si       0.84579    0.06736    0.49483    1.000
    Si4577   Si       0.77681    0.07660    0.48346    1.000
    N4578    N        0.80562    0.06851    0.51567    1.000
    N4579    N        0.85654    0.02701    0.47881    1.000
    Si4580   Si       0.97046    0.02079    0.50223    1.000
    N4581    N        0.97958    0.06043    0.52360    1.000
    N4582    N        0.98700    0.12841    0.50087    1.000
    N4583    N        0.87546    0.08014    0.52373    1.000
    N4584    N        0.77256    0.17640    0.52385    1.000
    N4585    N        0.80237    0.22950    0.49011    1.000
    Si4586   Si       0.79219    0.18794    0.48709    1.000
    N4587    N        0.83142    0.16803    0.47617    1.000
    Si4588   Si       0.83536    0.23919    0.51869    1.000
    N4589    N        0.96063    0.18672    0.49331    1.000
    N4590    N        0.89638    0.14909    0.50367    1.000
    N4591    N        0.94797    0.26013    0.52261    1.000
    Si4592   Si       0.86994    0.18166    0.49270    1.000
    Si4593   Si       0.94274    0.13818    0.49975    1.000
    Si4594   Si       0.97181    0.22175    0.52250    1.000
    Si4595   Si       0.79654    0.07367    0.55787    1.000
    N4596    N        0.79600    0.03201    0.57327    1.000
    N4597    N        0.75717    0.09195    0.57393    1.000
    Si4598   Si       0.75555    0.01805    0.58536    1.000
    N4599    N        0.81847    0.10405    0.58252    1.000
    N4600    N        0.92505    0.04957    0.56484    1.000
    Si4601   Si       0.88430    0.04782    0.55097    1.000
    Si4602   Si       0.95555    0.08195    0.55099    1.000
    N4603    N        0.93398    0.11407    0.53454    1.000
    Si4604   Si       0.89148    0.11914    0.53320    1.000
    Si4605   Si       0.94510    0.01137    0.56517    1.000
    Si4606   Si       0.76149    0.18429    0.56531    1.000
    N4607    N        0.77381    0.22299    0.58067    1.000
    N4608    N        0.83134    0.26060    0.55636    1.000
    N4609    N        0.85875    0.20310    0.52869    1.000
    Si4610   Si       0.87143    0.18351    0.56608    1.000
    N4611    N        0.90919    0.19798    0.57726    1.000
    N4612    N        0.97746    0.19955    0.56006    1.000
    N4613    N        0.87511    0.14167    0.56594    1.000
    Si4614   Si       0.82915    0.01969    0.59807    1.000
    Si4615   Si       0.78186    0.11674    0.60206    1.000
    Si4616   Si       0.85591    0.11882    0.59986    1.000
    N4617    N        0.81380    0.02413    0.63888    1.000
    N4618    N        0.74510    0.02941    0.62586    1.000
    N4619    N        0.86386    0.04369    0.58759    1.000
    N4620    N        0.98081    0.01259    0.59235    1.000
    N4621    N        0.93723    0.04906    0.63199    1.000
    Si4622   Si       0.97555    0.04980    0.61473    1.000
    N4623    N        0.88875    0.09465    0.61947    1.000
    Si4624   Si       0.89598    0.05218    0.61423    1.000
    Si4625   Si       0.98931    0.12112    0.60776    1.000
    N4626    N        0.97853    0.08510    0.58895    1.000
    N4627    N        0.81926    0.24895    0.62672    1.000
    N4628    N        0.84169    0.19583    0.59486    1.000
    Si4629   Si       0.81748    0.23084    0.58795    1.000
    Si4630   Si       0.83755    0.18292    0.63700    1.000
    N4631    N        0.76837    0.15824    0.59933    1.000
    Si4632   Si       0.76012    0.17711    0.63819    1.000
    N4633    N        0.84846    0.13850    0.63930    1.000
    Si4634   Si       0.94871    0.18670    0.59027    1.000
    N4635    N        0.95658    0.19399    0.63611    1.000
    N4636    N        0.95211    0.14420    0.60135    1.000
    N4637    N        0.92227    0.25277    0.64276    1.000
    N4638    N        0.76098    0.05738    0.68368    1.000
    Si4639   Si       0.75081    0.10165    0.67441    1.000
    Si4640   Si       0.81949    0.11135    0.66786    1.000
    Si4641   Si       0.77490    0.02617    0.65565    1.000
    N4642    N        0.85616    0.09008    0.68210    1.000
    N4643    N        0.78437    0.10309    0.64346    1.000
    Si4644   Si       0.84504    0.00851    0.66199    1.000
    Si4645   Si       0.92347    0.02513    0.66356    1.000
    Si4646   Si       0.88382    0.11573    0.65716    1.000
    N4647    N        0.98561    0.12579    0.65049    1.000
    N4648    N        0.88190    0.02424    0.64630    1.000
    N4649    N        0.91440    0.04638    0.70038    1.000
    Si4650   Si       0.81480    0.23039    0.66940    1.000
    N4651    N        0.79921    0.19012    0.65540    1.000
    N4652    N        0.85964    0.21148    0.66395    1.000
    Si4653   Si       0.95980    0.23469    0.64904    1.000
    N4654    N        0.96938    0.23814    0.69196    1.000
    Si4655   Si       0.95128    0.15223    0.64529    1.000
    Si4656   Si       0.88844    0.24519    0.66827    1.000
    N4657    N        0.91610    0.14196    0.66823    1.000
    N4658    N        0.78313    0.02399    0.74299    1.000
    Si4659   Si       0.75061    0.02712    0.71407    1.000
    N4660    N        0.74426    0.11625    0.71496    1.000
    N4661    N        0.80701    0.13048    0.70335    1.000
    N4662    N        0.84332    0.02260    0.70217    1.000
    N4663    N        0.87231    0.06668    0.74783    1.000
    N4664    N        0.91760    0.11145    0.73276    1.000
    Si4665   Si       0.93866    0.07343    0.72553    1.000
    Si4666   Si       0.87054    0.05598    0.70433    1.000
    N4667    N        0.95812    0.05216    0.75922    1.000
    N4668    N        0.97663    0.07559    0.70574    1.000
    Si4669   Si       0.77744    0.13768    0.73308    1.000
    Si4670   Si       0.80574    0.20984    0.75204    1.000
    N4671    N        0.82875    0.22360    0.71754    1.000
    N4672    N        0.77357    0.18192    0.73706    1.000
    Si4673   Si       0.86578    0.20277    0.70493    1.000
    N4674    N        0.78613    0.25039    0.75740    1.000
    Si4675   Si       0.91647    0.14977    0.71330    1.000
    N4676    N        0.87688    0.16669    0.72570    1.000
    Si4677   Si       0.97296    0.18082    0.75647    1.000
    N4678    N        0.90053    0.22942    0.70649    1.000
    N4679    N        0.95032    0.17643    0.71941    1.000
    Si4680   Si       0.94103    0.21866    0.71706    1.000
    Si4681   Si       0.81814    0.10818    0.79466    1.000
    N4682    N        0.81649    0.06502    0.79118    1.000
    Si4683   Si       0.78581    0.03767    0.78233    1.000
    N4684    N        0.85349    0.12682    0.77870    1.000
    Si4685   Si       0.85507    0.04443    0.78142    1.000
    N4686    N        0.74675    0.05232    0.79305    1.000
    N4687    N        0.78348    0.12571    0.77370    1.000
    Si4688   Si       0.74296    0.01630    0.81879    1.000
    Si4689   Si       0.96172    0.02423    0.79424    1.000
    N4690    N        0.90970    0.09743    0.79907    1.000
    Si4691   Si       0.88675    0.10404    0.76293    1.000
    N4692    N        0.88181    0.03789    0.81547    1.000
    Si4693   Si       0.76273    0.13678    0.81014    1.000
    N4694    N        0.84167    0.20074    0.77833    1.000
    Si4695   Si       0.85344    0.22795    0.81052    1.000
    Si4696   Si       0.96548    0.25815    0.77222    1.000
    N4697    N        0.90814    0.16515    0.78571    1.000
    Si4698   Si       0.92447    0.20350    0.79664    1.000
    Si4699   Si       0.93360    0.13482    0.80101    1.000
    Si4700   Si       0.86757    0.16640    0.76870    1.000
    N4701    N        0.94562    0.21944    0.76240    1.000
    N4702    N        0.97054    0.14487    0.77999    1.000
    N4703    N        0.79684    0.11536    0.83220    1.000
    N4704    N        0.74235    0.01533    0.86212    1.000
    Si4705   Si       0.79446    0.10518    0.87377    1.000
    N4706    N        0.78282    0.06358    0.88656    1.000
    Si4707   Si       0.91129    0.06703    0.82929    1.000
    Si4708   Si       0.94323    0.01698    0.86851    1.000
    N4709    N        0.90608    0.08729    0.86674    1.000
    N4710    N        0.94851    0.04460    0.83203    1.000
    N4711    N        0.98060    0.09600    0.87261    1.000
    Si4712   Si       0.94083    0.11340    0.87524    1.000
    Si4713   Si       0.87463    0.01112    0.85063    1.000
    N4714    N        0.75394    0.17477    0.82939    1.000
    N4715    N        0.83458    0.24401    0.84769    1.000
    Si4716   Si       0.76141    0.17381    0.87334    1.000
    N4717    N        0.95905    0.20075    0.82331    1.000
    N4718    N        0.93520    0.14142    0.84338    1.000
    N4719    N        0.89233    0.21211    0.82608    1.000
    Si4720   Si       0.95436    0.17665    0.85783    1.000
    Si4721   Si       0.89529    0.21173    0.86815    1.000
    N4722    N        0.82961    0.10656    0.89904    1.000
    Si4723   Si       0.81801    0.03912    0.89773    1.000
    Si4724   Si       0.74517    0.04317    0.89332    1.000
    N4725    N        0.74715    0.02315    0.93385    1.000
    N4726    N        0.76237    0.13304    0.88408    1.000
    N4727    N        0.85530    0.04053    0.87733    1.000
    Si4728   Si       0.83813    0.12267    0.93801    1.000
    Si4729   Si       0.88695    0.06259    0.89681    1.000
    N4730    N        0.92508    0.03856    0.90081    1.000
    N4731    N        0.83234    0.22817    0.91550    1.000
    Si4732   Si       0.83269    0.18603    0.90478    1.000
    Si4733   Si       0.80690    0.23618    0.87849    1.000
    N4734    N        0.80056    0.19213    0.87624    1.000
    N4735    N        0.87241    0.18281    0.89095    1.000
    Si4736   Si       0.90464    0.16929    0.91752    1.000
    N4737    N        0.95219    0.25890    0.92021    1.000
    N4738    N        0.93075    0.19794    0.88696    1.000
    N4739    N        0.98716    0.15999    0.87894    1.000
    Si4740   Si       0.97435    0.15278    0.92040    1.000
    N4741    N        0.93541    0.13463    0.91427    1.000
    Si4742   Si       0.96457    0.22175    0.90453    1.000
    Si4743   Si       0.85268    0.06160    0.96501    1.000
    N4744    N        0.83647    0.09950    0.97588    1.000
    N4745    N        0.74419    0.09367    0.94480    1.000
    Si4746   Si       0.78566    0.02226    0.95668    1.000
    Si4747   Si       0.74462    0.12254    0.97638    1.000
    N4748    N        0.82028    0.04504    0.94120    1.000
    N4749    N        0.85865    0.03040    0.99373    1.000
    N4750    N        0.76405    0.04054    0.99108    1.000
    N4751    N        0.97778    0.01635    0.94660    1.000
    N4752    N        0.94718    0.07686    0.95607    1.000
    Si4753   Si       0.91225    0.10734    0.94582    1.000
    N4754    N        0.91775    0.12572    0.98671    1.000
    Si4755   Si       0.93798    0.03557    0.94188    1.000
    N4756    N        0.90938    0.01025    0.95967    1.000
    N4757    N        0.88356    0.07505    0.93759    1.000
    N4758    N        0.85367    0.22565    0.98604    1.000
    Si4759   Si       0.78506    0.16644    0.96642    1.000
    Si4760   Si       0.84553    0.24963    0.94955    1.000
    N4761    N        0.78898    0.20481    0.98303    1.000
    Si4762   Si       0.75526    0.23341    0.98939    1.000
    N4763    N        0.74503    0.15947    0.95231    1.000
    N4764    N        0.78178    0.13477    0.99587    1.000
    N4765    N        0.81550    0.15983    0.93554    1.000
    Si4766   Si       0.89569    0.21713    0.99041    1.000
    N4767    N        0.98341    0.24228    0.98074    1.000
    N4768    N        0.87893    0.13859    0.94057    1.000
    N4769    N        0.90447    0.19141    0.95661    1.000
    Si4770   Si       0.98666    0.20044    0.97789    1.000
    Si4771   Si       0.88461    0.15574    0.97970    1.000
    N4772    N        0.97540    0.19362    0.93682    1.000
    Si4773   Si       0.76066    0.29888    0.02588    1.000
    Si4774   Si       0.81965    0.35454    0.03730    1.000
    N4775    N        0.79473    0.31925    0.04552    1.000
    N4776    N        0.86143    0.34805    0.05181    1.000
    N4777    N        0.76908    0.25731    0.02338    1.000
    N4778    N        0.86724    0.30311    0.00144    1.000
    N4779    N        0.97464    0.27096    0.04165    1.000
    Si4780   Si       0.87343    0.30702    0.04802    1.000
    Si4781   Si       0.83537    0.48891    0.01651    1.000
    Si4782   Si       0.81762    0.42101    0.03667    1.000
    N4783    N        0.81598    0.46254    0.04651    1.000
    N4784    N        0.85971    0.41243    0.03559    1.000
    N4785    N        0.97640    0.41538    0.04679    1.000
    N4786    N        0.92059    0.41625    0.00745    1.000
    Si4787   Si       0.94685    0.44314    0.02882    1.000
    N4788    N        0.91925    0.46469    0.05437    1.000
    Si4789   Si       0.87953    0.42510    0.99821    1.000
    N4790    N        0.96314    0.47440    0.00279    1.000
    N4791    N        0.84724    0.28499    0.07433    1.000
    Si4792   Si       0.80736    0.30157    0.08320    1.000
    Si4793   Si       0.80860    0.37838    0.10296    1.000
    N4794    N        0.78616    0.26523    0.09035    1.000
    N4795    N        0.79905    0.33593    0.10929    1.000
    Si4796   Si       0.85884    0.26679    0.11110    1.000
    N4797    N        0.96960    0.29676    0.10308    1.000
    Si4798   Si       0.92487    0.30395    0.10377    1.000
    N4799    N        0.91259    0.29500    0.06214    1.000
    N4800    N        0.80351    0.38804    0.05965    1.000
    N4801    N        0.85048    0.39256    0.10327    1.000
    N4802    N        0.78090    0.44458    0.10300    1.000
    Si4803   Si       0.79056    0.47954    0.07624    1.000
    N4804    N        0.81286    0.50506    0.10191    1.000
    N4805    N        0.75529    0.49439    0.05619    1.000
    Si4806   Si       0.91840    0.44043    0.09071    1.000
    Si4807   Si       0.87742    0.38701    0.06763    1.000
    N4808    N        0.91718    0.39836    0.08357    1.000
    Si4809   Si       0.98368    0.41954    0.09040    1.000
    Si4810   Si       0.97436    0.49281    0.11067    1.000
    Si4811   Si       0.91877    0.50758    0.06282    1.000
    N4812    N        0.95837    0.45368    0.10418    1.000
    N4813    N        0.88388    0.45205    0.11391    1.000
    Si4814   Si       0.78464    0.32153    0.14694    1.000
    N4815    N        0.77602    0.28079    0.15852    1.000
    N4816    N        0.83657    0.29012    0.14377    1.000
    N4817    N        0.85969    0.36491    0.16750    1.000
    N4818    N        0.74154    0.33384    0.15407    1.000
    Si4819   Si       0.98887    0.28228    0.14055    1.000
    Si4820   Si       0.91139    0.27091    0.16828    1.000
    N4821    N        0.92064    0.34186    0.12360    1.000
    N4822    N        0.89910    0.27582    0.12545    1.000
    Si4823   Si       0.90278    0.35285    0.16386    1.000
    N4824    N        0.95531    0.27456    0.16652    1.000
    Si4825   Si       0.93653    0.38231    0.11884    1.000
    N4826    N        0.76717    0.46798    0.16276    1.000
    N4827    N        0.83827    0.43964    0.15602    1.000
    N4828    N        0.79554    0.39374    0.14236    1.000
    Si4829   Si       0.79618    0.43961    0.14358    1.000
    N4830    N        0.85806    0.50413    0.15904    1.000
    N4831    N        0.91492    0.47150    0.16777    1.000
    Si4832   Si       0.86973    0.41624    0.13567    1.000
    Si4833   Si       0.88988    0.48897    0.13502    1.000
    N4834    N        0.98055    0.39019    0.12273    1.000
    N4835    N        0.90951    0.40042    0.15094    1.000
    N4836    N        0.83356    0.28755    0.20726    1.000
    Si4837   Si       0.77728    0.33603    0.21751    1.000
    N4838    N        0.80401    0.34047    0.18298    1.000
    N4839    N        0.74746    0.30411    0.21546    1.000
    N4840    N        0.75153    0.37238    0.22141    1.000
    Si4841   Si       0.81467    0.26420    0.17357    1.000
    Si4842   Si       0.84832    0.31906    0.17688    1.000
    Si4843   Si       0.82152    0.38026    0.17582    1.000
    N4844    N        0.91709    0.27038    0.21638    1.000
    N4845    N        0.93185    0.35714    0.19724    1.000
    Si4846   Si       0.92556    0.31525    0.21041    1.000
    N4847    N        0.96837    0.30644    0.22265    1.000
    N4848    N        0.89331    0.31116    0.17743    1.000
    Si4849   Si       0.96671    0.26286    0.20636    1.000
    N4850    N        0.81550    0.40293    0.21418    1.000
    Si4851   Si       0.78604    0.49695    0.19063    1.000
    N4852    N        0.82097    0.47956    0.20999    1.000
    Si4853   Si       0.86038    0.47021    0.18874    1.000
    Si4854   Si       0.95024    0.38443    0.22435    1.000
    Si4855   Si       0.94527    0.50064    0.18083    1.000
    N4856    N        0.95422    0.42291    0.20319    1.000
    Si4857   Si       0.98308    0.44766    0.22513    1.000
    N4858    N        0.97983    0.48454    0.20106    1.000
    N4859    N        0.87952    0.43253    0.20724    1.000
    Si4860   Si       0.91449    0.43100    0.18301    1.000
    N4861    N        0.87919    0.49651    0.22623    1.000
    Si4862   Si       0.82407    0.29024    0.24934    1.000
    N4863    N        0.80513    0.33032    0.25120    1.000
    Si4864   Si       0.82090    0.36309    0.27602    1.000
    N4865    N        0.85966    0.28743    0.27707    1.000
    N4866    N        0.79649    0.25982    0.26407    1.000
    N4867    N        0.85944    0.38029    0.26325    1.000
    N4868    N        0.73949    0.30285    0.28804    1.000
    N4869    N        0.93645    0.27563    0.28201    1.000
    Si4870   Si       0.89747    0.36281    0.26890    1.000
    N4871    N        0.90402    0.32411    0.24855    1.000
    Si4872   Si       0.96833    0.29897    0.26706    1.000
    Si4873   Si       0.89839    0.27872    0.25747    1.000
    N4874    N        0.98597    0.37467    0.24681    1.000
    Si4875   Si       0.74765    0.48420    0.25022    1.000
    N4876    N        0.78993    0.39371    0.27681    1.000
    N4877    N        0.84587    0.44803    0.26494    1.000
    Si4878   Si       0.84160    0.48832    0.24745    1.000
    Si4879   Si       0.77898    0.40601    0.23672    1.000
    N4880    N        0.75332    0.44231    0.23462    1.000
    Si4881   Si       0.85194    0.41656    0.23653    1.000
    N4882    N        0.77047    0.49241    0.28598    1.000
    Si4883   Si       0.97136    0.49385    0.27240    1.000
    Si4884   Si       0.94296    0.42169    0.28473    1.000
    N4885    N        0.92310    0.39483    0.25694    1.000
    N4886    N        0.96652    0.45136    0.26390    1.000
    N4887    N        0.80365    0.29113    0.32377    1.000
    N4888    N        0.83680    0.34656    0.31210    1.000
    Si4889   Si       0.84636    0.30414    0.31577    1.000
    Si4890   Si       0.77155    0.27328    0.29724    1.000
    Si4891   Si       0.86370    0.37739    0.32910    1.000
    N4892    N        0.90267    0.36572    0.31326    1.000
    Si4893   Si       0.94019    0.36917    0.33285    1.000
    N4894    N        0.97846    0.33102    0.29301    1.000
    N4895    N        0.87771    0.30070    0.34696    1.000
    N4896    N        0.74265    0.43306    0.30398    1.000
    Si4897   Si       0.75739    0.47082    0.32029    1.000
    N4898    N        0.84412    0.41604    0.32746    1.000
    Si4899   Si       0.76499    0.39662    0.31304    1.000
    N4900    N        0.79370    0.46456    0.34569    1.000
    N4901    N        0.96143    0.45675    0.34531    1.000
    Si4902   Si       0.91681    0.46783    0.34001    1.000
    N4903    N        0.87409    0.48332    0.32089    1.000
    N4904    N        0.96907    0.39901    0.31189    1.000
    Si4905   Si       0.86668    0.44363    0.30337    1.000
    N4906    N        0.90963    0.43517    0.30856    1.000
    Si4907   Si       0.78836    0.30422    0.36231    1.000
    N4908    N        0.82563    0.30647    0.38770    1.000
    N4909    N        0.77687    0.26562    0.38123    1.000
    Si4910   Si       0.81963    0.26272    0.39136    1.000
    Si4911   Si       0.75490    0.37394    0.37791    1.000
    N4912    N        0.86113    0.36686    0.37042    1.000
    N4913    N        0.75915    0.33333    0.35425    1.000
    Si4914   Si       0.86635    0.32600    0.38152    1.000
    Si4915   Si       0.93952    0.33260    0.39613    1.000
    N4916    N        0.95220    0.33284    0.35515    1.000
    N4917    N        0.85160    0.49521    0.37945    1.000
    N4918    N        0.82906    0.42443    0.39451    1.000
    Si4919   Si       0.81219    0.42674    0.35446    1.000
    Si4920   Si       0.85199    0.38938    0.40692    1.000
    Si4921   Si       0.80698    0.50271    0.37316    1.000
    N4922    N        0.77877    0.39781    0.35227    1.000
    Si4923   Si       0.97220    0.41526    0.35144    1.000
    Si4924   Si       0.88397    0.48211    0.40592    1.000
    Si4925   Si       0.91771    0.41853    0.39588    1.000
    Si4926   Si       0.98139    0.49509    0.35290    1.000
    N4927    N        0.93826    0.39449    0.36891    1.000
    N4928    N        0.90503    0.45666    0.38038    1.000
    N4929    N        0.82446    0.36619    0.43089    1.000
    Si4930   Si       0.75336    0.29868    0.45408    1.000
    N4931    N        0.79650    0.29649    0.45788    1.000
    Si4932   Si       0.81450    0.33535    0.46059    1.000
    Si4933   Si       0.81821    0.26113    0.46364    1.000
    N4934    N        0.73598    0.31009    0.41365    1.000
    Si4935   Si       0.89414    0.33433    0.45490    1.000
    N4936    N        0.97282    0.35282    0.42007    1.000
    N4937    N        0.95438    0.29349    0.40959    1.000
    N4938    N        0.89820    0.33179    0.41169    1.000
    Si4939   Si       0.98824    0.31210    0.42979    1.000
    Si4940   Si       0.76320    0.49243    0.44230    1.000
    Si4941   Si       0.79075    0.39081    0.44244    1.000
    N4942    N        0.80484    0.42913    0.45629    1.000
    Si4943   Si       0.82357    0.45482    0.42595    1.000
    N4944    N        0.75537    0.39365    0.41833    1.000
    N4945    N        0.79449    0.48642    0.41349    1.000
    N4946    N        0.86139    0.46971    0.44218    1.000
    Si4947   Si       0.91553    0.40454    0.45839    1.000
    Si4948   Si       0.96586    0.45503    0.45337    1.000
    Si4949   Si       0.98292    0.39380    0.41801    1.000
    N4950    N        0.94852    0.42052    0.43050    1.000
    N4951    N        0.88725    0.40387    0.42435    1.000
    N4952    N        0.85362    0.26453    0.48821    1.000
    N4953    N        0.78191    0.36070    0.47448    1.000
    N4954    N        0.85572    0.32978    0.47795    1.000
    Si4955   Si       0.74190    0.36368    0.49159    1.000
    Si4956   Si       0.87678    0.29823    0.49890    1.000
    Si4957   Si       0.94399    0.36470    0.51353    1.000
    Si4958   Si       0.94847    0.27583    0.48149    1.000
    N4959    N        0.91948    0.36532    0.47685    1.000
    N4960    N        0.91301    0.30024    0.47465    1.000
    N4961    N        0.98717    0.29305    0.46983    1.000
    N4962    N        0.84281    0.46363    0.51089    1.000
    Si4963   Si       0.80372    0.45423    0.49021    1.000
    N4964    N        0.78834    0.49275    0.48128    1.000
    N4965    N        0.79160    0.42873    0.52277    1.000
    N4966    N        0.97480    0.43096    0.48785    1.000
    Si4967   Si       0.96223    0.50498    0.51207    1.000
    N4968    N        0.90818    0.43762    0.48376    1.000
    Si4969   Si       0.94029    0.43765    0.51425    1.000
    Si4970   Si       0.87981    0.46964    0.48114    1.000
    N4971    N        0.94701    0.49180    0.47148    1.000
    N4972    N        0.88638    0.50828    0.49967    1.000
    Si4973   Si       0.84862    0.36872    0.57427    1.000
    Si4974   Si       0.85428    0.29696    0.56723    1.000
    N4975    N        0.82511    0.33100    0.57374    1.000
    N4976    N        0.74202    0.37199    0.53392    1.000
    Si4977   Si       0.92945    0.29054    0.54881    1.000
    N4978    N        0.88675    0.29552    0.53989    1.000
    N4979    N        0.88825    0.35187    0.58182    1.000
    N4980    N        0.94854    0.32492    0.53064    1.000
    N4981    N        0.94336    0.29024    0.58944    1.000
    Si4982   Si       0.83093    0.43303    0.54205    1.000
    N4983    N        0.84946    0.39569    0.54219    1.000
    Si4984   Si       0.75227    0.41623    0.53857    1.000
    N4985    N        0.82524    0.44938    0.57991    1.000
    Si4986   Si       0.86011    0.49931    0.53250    1.000
    N4987    N        0.77151    0.50384    0.54332    1.000
    N4988    N        0.76142    0.41403    0.58024    1.000
    N4989    N        0.93582    0.39966    0.53642    1.000
    N4990    N        0.88457    0.48525    0.56479    1.000
    Si4991   Si       0.95361    0.40972    0.57690    1.000
    N4992    N        0.94633    0.47392    0.53730    1.000
    Si4993   Si       0.92911    0.48227    0.57418    1.000
    Si4994   Si       0.80145    0.34664    0.60582    1.000
    N4995    N        0.75170    0.27747    0.62829    1.000
    N4996    N        0.75788    0.34325    0.60245    1.000
    Si4997   Si       0.84073    0.28613    0.63533    1.000
    N4998    N        0.80868    0.31567    0.63502    1.000
    N4999    N        0.87141    0.28739    0.60606    1.000
    Si5000   Si       0.91144    0.28812    0.61945    1.000
    Si5001   Si       0.91246    0.35961    0.61523    1.000
    N5002    N        0.95046    0.37400    0.60174    1.000
    Si5003   Si       0.98319    0.29296    0.60784    1.000
    N5004    N        0.92007    0.32420    0.63952    1.000
    N5005    N        0.98841    0.32619    0.63809    1.000
    N5006    N        0.88835    0.37996    0.64423    1.000
    N5007    N        0.82158    0.38638    0.60791    1.000
    Si5008   Si       0.85330    0.40416    0.63753    1.000
    Si5009   Si       0.85599    0.47179    0.59981    1.000
    Si5010   Si       0.79684    0.42437    0.60186    1.000
    Si5011   Si       0.75362    0.47433    0.63614    1.000
    N5012    N        0.77878    0.43812    0.63979    1.000
    N5013    N        0.77600    0.50403    0.61466    1.000
    N5014    N        0.90868    0.49659    0.62376    1.000
    N5015    N        0.98601    0.50458    0.64143    1.000
    N5016    N        0.93307    0.44403    0.59533    1.000
    Si5017   Si       0.91289    0.45344    0.63272    1.000
    N5018    N        0.87213    0.44122    0.62413    1.000
    N5019    N        0.75747    0.32033    0.67936    1.000
    Si5020   Si       0.77907    0.29236    0.65800    1.000
    N5021    N        0.79341    0.26324    0.68723    1.000
    N5022    N        0.85323    0.34942    0.69042    1.000
    N5023    N        0.86189    0.27876    0.67401    1.000
    Si5024   Si       0.74314    0.36198    0.68177    1.000
    Si5025   Si       0.85957    0.30970    0.70535    1.000
    N5026    N        0.94183    0.36726    0.68341    1.000
    Si5027   Si       0.95496    0.33051    0.66499    1.000
    Si5028   Si       0.89900    0.36022    0.68433    1.000
    N5029    N        0.96848    0.30643    0.69907    1.000
    N5030    N        0.90208    0.32202    0.70992    1.000
    N5031    N        0.77669    0.38168    0.69535    1.000
    N5032    N        0.83125    0.41468    0.67373    1.000
    Si5033   Si       0.78904    0.41935    0.67752    1.000
    N5034    N        0.80872    0.50486    0.67685    1.000
    N5035    N        0.74058    0.49648    0.67260    1.000
    Si5036   Si       0.93620    0.47488    0.69863    1.000
    N5037    N        0.98656    0.41300    0.65664    1.000
    Si5038   Si       0.95406    0.40835    0.68195    1.000
    N5039    N        0.92963    0.44285    0.66914    1.000
    N5040    N        0.84154    0.29517    0.74111    1.000
    N5041    N        0.77088    0.33702    0.74977    1.000
    Si5042   Si       0.78543    0.37685    0.73840    1.000
    Si5043   Si       0.81289    0.26296    0.72676    1.000
    Si5044   Si       0.74201    0.31493    0.72090    1.000
    Si5045   Si       0.93878    0.31643    0.72957    1.000
    N5046    N        0.94260    0.35087    0.75779    1.000
    Si5047   Si       0.96954    0.38275    0.75504    1.000
    Si5048   Si       0.84760    0.39042    0.70616    1.000
    N5049    N        0.77095    0.44675    0.70751    1.000
    N5050    N        0.82628    0.38949    0.74527    1.000
    N5051    N        0.84560    0.45344    0.73895    1.000
    N5052    N        0.75723    0.40413    0.75997    1.000
    N5053    N        0.78849    0.51035    0.73817    1.000
    Si5054   Si       0.77509    0.48917    0.69975    1.000
    Si5055   Si       0.87328    0.48567    0.74157    1.000
    Si5056   Si       0.91068    0.42225    0.73769    1.000
    N5057    N        0.91094    0.46567    0.73382    1.000
    N5058    N        0.95912    0.41514    0.72830    1.000
    N5059    N        0.88932    0.39686    0.71001    1.000
    N5060    N        0.97867    0.47451    0.70735    1.000
    N5061    N        0.81472    0.32037    0.80468    1.000
    Si5062   Si       0.77325    0.32510    0.79190    1.000
    Si5063   Si       0.85103    0.30550    0.78355    1.000
    Si5064   Si       0.74439    0.26283    0.77212    1.000
    N5065    N        0.74341    0.29452    0.80226    1.000
    N5066    N        0.75633    0.35769    0.81807    1.000
    N5067    N        0.86692    0.27068    0.80387    1.000
    N5068    N        0.88283    0.33459    0.79324    1.000
    Si5069   Si       0.92453    0.32208    0.78788    1.000
    Si5070   Si       0.88525    0.37705    0.80643    1.000
    N5071    N        0.98122    0.26404    0.81372    1.000
    N5072    N        0.93628    0.28817    0.76204    1.000
    Si5073   Si       0.74968    0.39687    0.80156    1.000
    N5074    N        0.79172    0.49454    0.80778    1.000
    N5075    N        0.83384    0.44142    0.80249    1.000
    Si5076   Si       0.83439    0.48370    0.80889    1.000
    Si5077   Si       0.84776    0.42040    0.76700    1.000
    Si5078   Si       0.76446    0.50416    0.77417    1.000
    N5079    N        0.85937    0.50484    0.78048    1.000
    N5080    N        0.97202    0.39698    0.79744    1.000
    N5081    N        0.88923    0.40803    0.77375    1.000
    Si5082   Si       0.83146    0.34337    0.83831    1.000
    N5083    N        0.85720    0.31509    0.86005    1.000
    N5084    N        0.80526    0.36066    0.86703    1.000
    Si5085   Si       0.76151    0.36363    0.86346    1.000
    N5086    N        0.84671    0.38148    0.82327    1.000
    Si5087   Si       0.86589    0.27479    0.84947    1.000
    Si5088   Si       0.98280    0.30476    0.82746    1.000
    Si5089   Si       0.95533    0.37383    0.83017    1.000
    N5090    N        0.98621    0.37878    0.86104    1.000
    N5091    N        0.94993    0.32983    0.82087    1.000
    N5092    N        0.91466    0.38709    0.83601    1.000
    N5093    N        0.89340    0.25610    0.87733    1.000
    Si5094   Si       0.79397    0.50158    0.85091    1.000
    N5095    N        0.77180    0.47118    0.87077    1.000
    N5096    N        0.77499    0.42201    0.82750    1.000
    Si5097   Si       0.81758    0.41401    0.83058    1.000
    N5098    N        0.83842    0.49653    0.85268    1.000
    Si5099   Si       0.74934    0.43649    0.86063    1.000
    N5100    N        0.82890    0.42488    0.87162    1.000
    Si5101   Si       0.89768    0.40382    0.87240    1.000
    Si5102   Si       0.92540    0.47187    0.85677    1.000
    N5103    N        0.95658    0.48294    0.82439    1.000
    N5104    N        0.89263    0.44432    0.86129    1.000
    Si5105   Si       0.77787    0.27891    0.93422    1.000
    N5106    N        0.85860    0.33296    0.93998    1.000
    N5107    N        0.76633    0.32262    0.93435    1.000
    N5108    N        0.77228    0.25857    0.89533    1.000
    N5109    N        0.87017    0.37618    0.89171    1.000
    Si5110   Si       0.87188    0.33394    0.89715    1.000
    Si5111   Si       0.91182    0.27372    0.91189    1.000
    N5112    N        0.91179    0.31645    0.90448    1.000
    N5113    N        0.97258    0.35394    0.92457    1.000
    Si5114   Si       0.93626    0.33449    0.93791    1.000
    Si5115   Si       0.82762    0.38759    0.88986    1.000
    N5116    N        0.80725    0.38802    0.93038    1.000
    Si5117   Si       0.76564    0.40352    0.92861    1.000
    Si5118   Si       0.77207    0.48025    0.91387    1.000
    N5119    N        0.75292    0.39873    0.88739    1.000
    N5120    N        0.86381    0.47275    0.91768    1.000
    N5121    N        0.77421    0.44628    0.93836    1.000
    Si5122   Si       0.85448    0.46087    0.87640    1.000
    Si5123   Si       0.89071    0.38655    0.93381    1.000
    N5124    N        0.94420    0.46855    0.89510    1.000
    N5125    N        0.92026    0.40637    0.90912    1.000
    Si5126   Si       0.94586    0.50250    0.92354    1.000
    Si5127   Si       0.95609    0.43095    0.91436    1.000
    N5128    N        0.81532    0.28221    0.95626    1.000
    Si5129   Si       0.83696    0.31729    0.97252    1.000
    N5130    N        0.82069    0.35111    0.99371    1.000
    N5131    N        0.74522    0.26197    0.95743    1.000
    N5132    N        0.88673    0.26379    0.94523    1.000
    Si5133   Si       0.97051    0.27765    0.95673    1.000
    Si5134   Si       0.89907    0.28398    0.98305    1.000
    N5135    N        0.93525    0.30218    0.96548    1.000
    N5136    N        0.91874    0.36686    0.95999    1.000
    N5137    N        0.97795    0.36903    0.99406    1.000
    N5138    N        0.74185    0.44591    0.99577    1.000
    Si5139   Si       0.82427    0.38883    0.96962    1.000
    Si5140   Si       0.78361    0.45123    0.98096    1.000
    N5141    N        0.80521    0.48798    0.98541    1.000
    N5142    N        0.80570    0.41712    0.99578    1.000
    Si5143   Si       0.93937    0.51067    0.99321    1.000
    N5144    N        0.91756    0.49816    0.95648    1.000
    Si5145   Si       0.94560    0.39381    0.97978    1.000
    N5146    N        0.86537    0.40463    0.96363    1.000
    Si5147   Si       0.98984    0.45926    0.97275    1.000
    N5148    N        0.98623    0.49304    0.94114    1.000
    N5149    N        0.86703    0.46745    0.99489    1.000
    N5150    N        0.96311    0.42702    0.95764    1.000
    Si5151   Si       0.87550    0.48904    0.95660    1.000
    N5152    N        0.78983    0.60714    0.02721    1.000
    N5153    N        0.84322    0.52687    0.03667    1.000
    Si5154   Si       0.83275    0.61707    0.01998    1.000
    Si5155   Si       0.76427    0.58521    0.99995    1.000
    N5156    N        0.86271    0.58806    0.00580    1.000
    Si5157   Si       0.87737    0.55227    0.02924    1.000
    N5158    N        0.91159    0.52555    0.02480    1.000
    N5159    N        0.93234    0.59461    0.01471    1.000
    Si5160   Si       0.97229    0.57518    0.01100    1.000
    N5161    N        0.82131    0.70365    0.04960    1.000
    Si5162   Si       0.84635    0.72010    0.01542    1.000
    N5163    N        0.76421    0.66912    0.02712    1.000
    N5164    N        0.77099    0.73726    0.02226    1.000
    Si5165   Si       0.77820    0.70361    0.04987    1.000
    N5166    N        0.84646    0.64015    0.05295    1.000
    Si5167   Si       0.91261    0.75020    0.03837    1.000
    N5168    N        0.94835    0.72125    0.03779    1.000
    Si5169   Si       0.98025    0.70977    0.01064    1.000
    N5170    N        0.88002    0.72303    0.04390    1.000
    Si5171   Si       0.82450    0.54024    0.07673    1.000
    N5172    N        0.78658    0.56007    0.07157    1.000
    N5173    N        0.80480    0.62077    0.09327    1.000
    Si5174   Si       0.77412    0.60368    0.06787    1.000
    Si5175   Si       0.75199    0.53729    0.06077    1.000
    N5176    N        0.84131    0.55962    0.11445    1.000
    N5177    N        0.95909    0.51777    0.07780    1.000
    N5178    N        0.96176    0.59640    0.07760    1.000
    N5179    N        0.88982    0.57367    0.06644    1.000
    Si5180   Si       0.88561    0.55784    0.10688    1.000
    Si5181   Si       0.97801    0.55609    0.07855    1.000
    N5182    N        0.89666    0.51606    0.10194    1.000
    Si5183   Si       0.92416    0.60161    0.05558    1.000
    Si5184   Si       0.74150    0.70480    0.10234    1.000
    Si5185   Si       0.81385    0.66074    0.07853    1.000
    N5186    N        0.77792    0.68280    0.08897    1.000
    N5187    N        0.85064    0.68026    0.10398    1.000
    Si5188   Si       0.85248    0.71659    0.07695    1.000
    N5189    N        0.75183    0.74648    0.09943    1.000
    N5190    N        0.86451    0.74381    0.11038    1.000
    N5191    N        0.91194    0.64077    0.07186    1.000
    N5192    N        0.92774    0.70004    0.10489    1.000
    Si5193   Si       0.87253    0.64369    0.08860    1.000
    Si5194   Si       0.95169    0.72756    0.08077    1.000
    Si5195   Si       0.93833    0.65906    0.09986    1.000
    N5196    N        0.97830    0.66353    0.08136    1.000
    Si5197   Si       0.82920    0.60099    0.12229    1.000
    Si5198   Si       0.82681    0.52465    0.13748    1.000
    N5199    N        0.81019    0.60311    0.16094    1.000
    N5200    N        0.79614    0.53196    0.16423    1.000
    N5201    N        0.86944    0.61923    0.12336    1.000
    N5202    N        0.90846    0.57129    0.14157    1.000
    Si5203   Si       0.97289    0.62232    0.15725    1.000
    Si5204   Si       0.90304    0.61443    0.15160    1.000
    N5205    N        0.96146    0.51672    0.14372    1.000
    N5206    N        0.96767    0.58185    0.17176    1.000
    N5207    N        0.81577    0.72040    0.14863    1.000
    Si5208   Si       0.84699    0.69028    0.14713    1.000
    Si5209   Si       0.77697    0.72143    0.16630    1.000
    N5210    N        0.74507    0.70014    0.14624    1.000
    Si5211   Si       0.90079    0.72593    0.12544    1.000
    N5212    N        0.93766    0.63743    0.13727    1.000
    N5213    N        0.88780    0.70165    0.15917    1.000
    Si5214   Si       0.79166    0.57126    0.18278    1.000
    Si5215   Si       0.82561    0.62486    0.20052    1.000
    N5216    N        0.81861    0.57770    0.21603    1.000
    N5217    N        0.74851    0.57460    0.18974    1.000
    N5218    N        0.75459    0.51127    0.21731    1.000
    N5219    N        0.92905    0.53375    0.20180    1.000
    N5220    N        0.90278    0.60373    0.19384    1.000
    Si5221   Si       0.92753    0.56905    0.18148    1.000
    N5222    N        0.79680    0.64249    0.22936    1.000
    N5223    N        0.77945    0.70273    0.20575    1.000
    Si5224   Si       0.76314    0.66485    0.21489    1.000
    N5225    N        0.84151    0.65985    0.18078    1.000
    Si5226   Si       0.86348    0.66912    0.21782    1.000
    N5227    N        0.98905    0.64184    0.19240    1.000
    N5228    N        0.91431    0.74127    0.21203    1.000
    N5229    N        0.95906    0.69771    0.17787    1.000
    N5230    N        0.90611    0.67449    0.22152    1.000
    Si5231   Si       0.91858    0.70109    0.19161    1.000
    Si5232   Si       0.84081    0.56509    0.25122    1.000
    N5233    N        0.82646    0.52435    0.26384    1.000
    N5234    N        0.82644    0.59143    0.28264    1.000
    N5235    N        0.85506    0.63002    0.23830    1.000
    Si5236   Si       0.81974    0.63348    0.26772    1.000
    N5237    N        0.78020    0.63290    0.29169    1.000
    N5238    N        0.97671    0.59976    0.26197    1.000
    N5239    N        0.88428    0.56313    0.24784    1.000
    N5240    N        0.91602    0.62249    0.26589    1.000
    Si5241   Si       0.90533    0.52779    0.23804    1.000
    N5242    N        0.93541    0.51663    0.27023    1.000
    Si5243   Si       0.89201    0.60531    0.23592    1.000
    N5244    N        0.78976    0.71265    0.27750    1.000
    Si5245   Si       0.80727    0.71734    0.23772    1.000
    Si5246   Si       0.74570    0.71090    0.27115    1.000
    N5247    N        0.84570    0.70185    0.23930    1.000
    Si5248   Si       0.92392    0.66637    0.26020    1.000
    N5249    N        0.96654    0.66789    0.25182    1.000
    Si5250   Si       0.98720    0.63461    0.23499    1.000
    N5251    N        0.96222    0.73374    0.26600    1.000
    Si5252   Si       0.79691    0.59487    0.31588    1.000
    N5253    N        0.81503    0.52296    0.33415    1.000
    N5254    N        0.77102    0.56343    0.29838    1.000
    Si5255   Si       0.79677    0.52538    0.29501    1.000
    Si5256   Si       0.85777    0.51620    0.34112    1.000
    N5257    N        0.82813    0.60079    0.34607    1.000
    N5258    N        0.76597    0.61473    0.34805    1.000
    N5259    N        0.98515    0.51205    0.31213    1.000
    Si5260   Si       0.94318    0.53364    0.30870    1.000
    N5261    N        0.93291    0.57478    0.31800    1.000
    N5262    N        0.89012    0.62605    0.33970    1.000
    Si5263   Si       0.94636    0.60566    0.29124    1.000
    N5264    N        0.92638    0.51207    0.34123    1.000
    Si5265   Si       0.90534    0.58580    0.34855    1.000
    Si5266   Si       0.84891    0.63734    0.33925    1.000
    N5267    N        0.84470    0.72580    0.32407    1.000
    Si5268   Si       0.76512    0.65168    0.32803    1.000
    N5269    N        0.83664    0.65863    0.30395    1.000
    Si5270   Si       0.81497    0.69808    0.30942    1.000
    N5271    N        0.78395    0.68742    0.34165    1.000
    Si5272   Si       0.88799    0.71744    0.32000    1.000
    Si5273   Si       0.91978    0.65961    0.33664    1.000
    Si5274   Si       0.95283    0.74727    0.30617    1.000
    N5275    N        0.96932    0.72535    0.33795    1.000
    N5276    N        0.90739    0.68499    0.29550    1.000
    N5277    N        0.90901    0.75494    0.31035    1.000
    N5278    N        0.95497    0.63958    0.32125    1.000
    Si5279   Si       0.84162    0.57501    0.37897    1.000
    N5280    N        0.81174    0.54818    0.39465    1.000
    Si5281   Si       0.74310    0.59697    0.37822    1.000
    N5282    N        0.74458    0.55369    0.37838    1.000
    N5283    N        0.92545    0.57358    0.38551    1.000
    Si5284   Si       0.93149    0.53021    0.38039    1.000
    N5285    N        0.97085    0.51688    0.38838    1.000
    Si5286   Si       0.96084    0.62759    0.40498    1.000
    N5287    N        0.87289    0.55468    0.35472    1.000
    N5288    N        0.86860    0.59704    0.41032    1.000
    Si5289   Si       0.83965    0.75034    0.35937    1.000
    N5290    N        0.75606    0.75283    0.36939    1.000
    Si5291   Si       0.80347    0.68595    0.38084    1.000
    N5292    N        0.83634    0.65669    0.37741    1.000
    N5293    N        0.82393    0.72392    0.39153    1.000
    Si5294   Si       0.74844    0.71575    0.35058    1.000
    N5295    N        0.93964    0.65706    0.37909    1.000
    N5296    N        0.89937    0.69618    0.35557    1.000
    Si5297   Si       0.91234    0.68740    0.39659    1.000
    N5298    N        0.75302    0.53467    0.44404    1.000
    N5299    N        0.76727    0.60096    0.41695    1.000
    Si5300   Si       0.77414    0.55609    0.41259    1.000
    Si5301   Si       0.94039    0.52614    0.44555    1.000
    N5302    N        0.93350    0.61856    0.43886    1.000
    Si5303   Si       0.90759    0.58518    0.42492    1.000
    N5304    N        0.92318    0.56201    0.46084    1.000
    N5305    N        0.98231    0.54169    0.44620    1.000
    N5306    N        0.91332    0.51344    0.41471    1.000
    Si5307   Si       0.78254    0.63664    0.43635    1.000
    Si5308   Si       0.85256    0.64037    0.41409    1.000
    N5309    N        0.82360    0.64001    0.44556    1.000
    N5310    N        0.79715    0.71829    0.46047    1.000
    Si5311   Si       0.76275    0.74687    0.45288    1.000
    Si5312   Si       0.81983    0.74081    0.43170    1.000
    N5313    N        0.85845    0.75692    0.43785    1.000
    N5314    N        0.77289    0.66992    0.40878    1.000
    N5315    N        0.92074    0.72554    0.41782    1.000
    N5316    N        0.97341    0.73884    0.46092    1.000
    Si5317   Si       0.93327    0.72536    0.45798    1.000
    Si5318   Si       0.90973    0.65253    0.45880    1.000
    N5319    N        0.88605    0.66488    0.42319    1.000
    N5320    N        0.76873    0.56187    0.50370    1.000
    N5321    N        0.81900    0.60798    0.50820    1.000
    Si5322   Si       0.79199    0.52472    0.51274    1.000
    Si5323   Si       0.77528    0.60585    0.51037    1.000
    N5324    N        0.76124    0.63090    0.47597    1.000
    N5325    N        0.83175    0.53253    0.52839    1.000
    Si5326   Si       0.90576    0.54753    0.49783    1.000
    N5327    N        0.93906    0.61475    0.51032    1.000
    Si5328   Si       0.89526    0.61702    0.51742    1.000
    N5329    N        0.87996    0.57821    0.51299    1.000
    Si5330   Si       0.95359    0.59703    0.47197    1.000
    N5331    N        0.93984    0.54125    0.52631    1.000
    Si5332   Si       0.79178    0.69991    0.50013    1.000
    N5333    N        0.82769    0.67878    0.51149    1.000
    Si5334   Si       0.83662    0.64321    0.48798    1.000
    N5335    N        0.75246    0.69110    0.52013    1.000
    N5336    N        0.86595    0.73966    0.51709    1.000
    N5337    N        0.92779    0.68832    0.47518    1.000
    N5338    N        0.91123    0.75427    0.48089    1.000
    N5339    N        0.87980    0.63888    0.48468    1.000
    N5340    N        0.83573    0.59005    0.57017    1.000
    N5341    N        0.74911    0.62066    0.54345    1.000
    Si5342   Si       0.75937    0.52447    0.57852    1.000
    Si5343   Si       0.83792    0.57654    0.52856    1.000
    N5344    N        0.94767    0.59238    0.57640    1.000
    Si5345   Si       0.96144    0.62188    0.54618    1.000
    Si5346   Si       0.93486    0.55304    0.56744    1.000
    N5347    N        0.89090    0.63200    0.55798    1.000
    N5348    N        0.84139    0.71004    0.57793    1.000
    Si5349   Si       0.75689    0.72114    0.55187    1.000
    Si5350   Si       0.83685    0.71487    0.53512    1.000
    N5351    N        0.79622    0.73312    0.53167    1.000
    N5352    N        0.95458    0.74490    0.52704    1.000
    N5353    N        0.95518    0.66446    0.55634    1.000
    Si5354   Si       0.90961    0.74445    0.52554    1.000
    Si5355   Si       0.91395    0.66766    0.56965    1.000
    Si5356   Si       0.96073    0.70869    0.55262    1.000
    N5357    N        0.91098    0.70992    0.55575    1.000
    Si5358   Si       0.80557    0.58620    0.60107    1.000
    N5359    N        0.78122    0.62222    0.60638    1.000
    Si5360   Si       0.81028    0.52271    0.63768    1.000
    N5361    N        0.81576    0.56781    0.63854    1.000
    N5362    N        0.84494    0.51023    0.61247    1.000
    Si5363   Si       0.74904    0.60463    0.58296    1.000
    N5364    N        0.77120    0.56518    0.58226    1.000
    N5365    N        0.86444    0.61240    0.62490    1.000
    Si5366   Si       0.88082    0.53029    0.61885    1.000
    Si5367   Si       0.95659    0.59900    0.61856    1.000
    N5368    N        0.92927    0.62791    0.63940    1.000
    Si5369   Si       0.94492    0.51829    0.63787    1.000
    N5370    N        0.89505    0.55634    0.58656    1.000
    N5371    N        0.95479    0.51770    0.58641    1.000
    N5372    N        0.95014    0.56240    0.64193    1.000
    Si5373   Si       0.87583    0.59806    0.58356    1.000
    N5374    N        0.81382    0.68210    0.63427    1.000
    Si5375   Si       0.80672    0.71584    0.60805    1.000
    Si5376   Si       0.78457    0.65073    0.63909    1.000
    N5377    N        0.76698    0.70804    0.59140    1.000
    N5378    N        0.81169    0.75587    0.62609    1.000
    N5379    N        0.74600    0.67129    0.64203    1.000
    Si5380   Si       0.97074    0.71505    0.63722    1.000
    N5381    N        0.88529    0.74715    0.61964    1.000
    Si5382   Si       0.88994    0.64603    0.63553    1.000
    Si5383   Si       0.88307    0.71602    0.58972    1.000
    N5384    N        0.89481    0.67757    0.60551    1.000
    N5385    N        0.96947    0.71686    0.59517    1.000
    Si5386   Si       0.78787    0.58126    0.67234    1.000
    N5387    N        0.79134    0.62516    0.67430    1.000
    Si5388   Si       0.85308    0.58615    0.65730    1.000
    N5389    N        0.74674    0.57300    0.66926    1.000
    N5390    N        0.86558    0.60428    0.69483    1.000
    Si5391   Si       0.95801    0.56782    0.68393    1.000
    N5392    N        0.87854    0.55123    0.65575    1.000
    N5393    N        0.97641    0.60756    0.67945    1.000
    Si5394   Si       0.89890    0.54078    0.69378    1.000
    N5395    N        0.93277    0.51422    0.68108    1.000
    N5396    N        0.83997    0.73035    0.67657    1.000
    Si5397   Si       0.83809    0.68783    0.66975    1.000
    N5398    N        0.74300    0.72904    0.68093    1.000
    Si5399   Si       0.95435    0.64360    0.67152    1.000
    N5400    N        0.97827    0.67438    0.65070    1.000
    N5401    N        0.94260    0.72701    0.66653    1.000
    Si5402   Si       0.97935    0.74368    0.69392    1.000
    N5403    N        0.87338    0.66442    0.67039    1.000
    Si5404   Si       0.91458    0.75359    0.65159    1.000
    Si5405   Si       0.83517    0.59678    0.72704    1.000
    N5406    N        0.80574    0.62398    0.74332    1.000
    Si5407   Si       0.82429    0.52509    0.71197    1.000
    N5408    N        0.81047    0.56667    0.70511    1.000
    N5409    N        0.86066    0.57989    0.76050    1.000
    N5410    N        0.86690    0.51910    0.71398    1.000
    N5411    N        0.92482    0.57080    0.71189    1.000
    Si5412   Si       0.93357    0.57223    0.75574    1.000
    N5413    N        0.74926    0.66583    0.71651    1.000
    Si5414   Si       0.81989    0.72364    0.71704    1.000
    Si5415   Si       0.78745    0.64830    0.71179    1.000
    N5416    N        0.78945    0.75094    0.73158    1.000
    N5417    N        0.85524    0.72173    0.74001    1.000
    Si5418   Si       0.74833    0.75407    0.71502    1.000
    N5419    N        0.81379    0.68063    0.70598    1.000
    Si5420   Si       0.94188    0.73559    0.75762    1.000
    Si5421   Si       0.95003    0.67794    0.73715    1.000
    Si5422   Si       0.87967    0.75444    0.72491    1.000
    N5423    N        0.91814    0.70101    0.75829    1.000
    N5424    N        0.87618    0.64978    0.74422    1.000
    N5425    N        0.96802    0.71840    0.72667    1.000
    Si5426   Si       0.88816    0.64007    0.70463    1.000
    N5427    N        0.93253    0.65264    0.70792    1.000
    Si5428   Si       0.78836    0.62205    0.78270    1.000
    N5429    N        0.85296    0.62374    0.81004    1.000
    N5430    N        0.79541    0.58828    0.80793    1.000
    N5431    N        0.74733    0.54157    0.79080    1.000
    N5432    N        0.74499    0.62554    0.77924    1.000
    Si5433   Si       0.87332    0.54678    0.78617    1.000
    N5434    N        0.91854    0.54039    0.78287    1.000
    Si5435   Si       0.87940    0.61836    0.77644    1.000
    N5436    N        0.92272    0.61039    0.77788    1.000
    Si5437   Si       0.98679    0.57511    0.80682    1.000
    Si5438   Si       0.93518    0.52085    0.81819    1.000
    N5439    N        0.97582    0.56980    0.76437    1.000
    N5440    N        0.79915    0.66001    0.80128    1.000
    Si5441   Si       0.76432    0.68341    0.81845    1.000
    N5442    N        0.95517    0.75226    0.79437    1.000
    Si5443   Si       0.87717    0.68899    0.75946    1.000
    Si5444   Si       0.95132    0.63763    0.79779    1.000
    N5445    N        0.87167    0.68585    0.80258    1.000
    N5446    N        0.97495    0.66233    0.76788    1.000
    N5447    N        0.78134    0.54275    0.85744    1.000
    Si5448   Si       0.83187    0.59369    0.83189    1.000
    N5449    N        0.82364    0.61261    0.86721    1.000
    N5450    N        0.86097    0.56038    0.82695    1.000
    Si5451   Si       0.76183    0.56440    0.82440    1.000
    Si5452   Si       0.86881    0.53050    0.85625    1.000
    N5453    N        0.96495    0.54955    0.83455    1.000
    Si5454   Si       0.97116    0.60906    0.86821    1.000
    Si5455   Si       0.97985    0.54283    0.87497    1.000
    N5456    N        0.90598    0.51007    0.84934    1.000
    N5457    N        0.97438    0.61392    0.82588    1.000
    N5458    N        0.83446    0.68571    0.85717    1.000
    N5459    N        0.77662    0.72001    0.84024    1.000
    Si5460   Si       0.80967    0.72273    0.86666    1.000
    Si5461   Si       0.75020    0.75463    0.84362    1.000
    N5462    N        0.83383    0.75513    0.85416    1.000
    N5463    N        0.74259    0.65618    0.84385    1.000
    Si5464   Si       0.83974    0.66430    0.81984    1.000
    N5465    N        0.93972    0.67257    0.81999    1.000
    N5466    N        0.89959    0.67049    0.86890    1.000
    N5467    N        0.90099    0.73750    0.83819    1.000
    N5468    N        0.97874    0.72292    0.84886    1.000
    Si5469   Si       0.87470    0.74954    0.87197    1.000
    Si5470   Si       0.90365    0.69433    0.83170    1.000
    Si5471   Si       0.97527    0.67851    0.84527    1.000
    N5472    N        0.97190    0.65104    0.88008    1.000
    Si5473   Si       0.79155    0.55696    0.89853    1.000
    Si5474   Si       0.82192    0.62303    0.90727    1.000
    N5475    N        0.75515    0.57279    0.91305    1.000
    N5476    N        0.79485    0.51644    0.91891    1.000
    N5477    N        0.82302    0.58099    0.92404    1.000
    Si5478   Si       0.75185    0.61296    0.93089    1.000
    Si5479   Si       0.85978    0.56061    0.93254    1.000
    N5480    N        0.94953    0.54086    0.90648    1.000
    Si5481   Si       0.91540    0.56984    0.90770    1.000
    N5482    N        0.87695    0.55065    0.89368    1.000
    N5483    N        0.92998    0.60389    0.88446    1.000
    N5484    N        0.78259    0.64050    0.91578    1.000
    N5485    N        0.85068    0.65498    0.92102    1.000
    N5486    N        0.80392    0.71571    0.90827    1.000
    Si5487   Si       0.77995    0.68277    0.92268    1.000
    Si5488   Si       0.86225    0.68315    0.89139    1.000
    Si5489   Si       0.92884    0.64634    0.89202    1.000
    N5490    N        0.98278    0.71503    0.91615    1.000
    Si5491   Si       0.97990    0.67185    0.91869    1.000
    N5492    N        0.93987    0.65868    0.93114    1.000
    N5493    N        0.87553    0.72197    0.90720    1.000
    Si5494   Si       0.80663    0.52371    0.96013    1.000
    N5495    N        0.78749    0.55515    0.97841    1.000
    N5496    N        0.85110    0.52601    0.95895    1.000
    N5497    N        0.74867    0.62013    0.97511    1.000
    Si5498   Si       0.89860    0.60323    0.98431    1.000
    N5499    N        0.96706    0.54300    0.98247    1.000
    N5500    N        0.89837    0.57890    0.94771    1.000
    Si5501   Si       0.77885    0.65263    0.99031    1.000
    N5502    N        0.77499    0.68731    0.96508    1.000
    Si5503   Si       0.85540    0.66243    0.96496    1.000
    Si5504   Si       0.75520    0.72115    0.98505    1.000
    N5505    N        0.82215    0.64309    0.98414    1.000
    N5506    N        0.75132    0.75259    0.95552    1.000
    N5507    N        0.86099    0.70517    0.97778    1.000
    Si5508   Si       0.88330    0.72787    0.94960    1.000
    N5509    N        0.89376    0.64590    0.97820    1.000
    Si5510   Si       0.92923    0.67212    0.97175    1.000
    N5511    N        0.92364    0.71445    0.96007    1.000
    N5512    N        0.97103    0.67258    0.98836    1.000
    Si5513   Si       0.95958    0.73664    0.94863    1.000
    N5514    N        0.98266    0.74268    0.98427    1.000
    N5515    N        0.79938    0.85843    0.02080    1.000
    Si5516   Si       0.79504    0.77405    0.01864    1.000
    N5517    N        0.83497    0.76184    0.01318    1.000
    N5518    N        0.78249    0.79896    0.05456    1.000
    N5519    N        0.90065    0.78441    0.01578    1.000
    Si5520   Si       0.91947    0.82349    0.01828    1.000
    N5521    N        0.96246    0.81357    0.01022    1.000
    N5522    N        0.90392    0.84849    0.05048    1.000
    Si5523   Si       0.86453    0.87140    0.05484    1.000
    Si5524   Si       0.98825    0.84587    0.02562    1.000
    N5525    N        0.76862    0.98380    0.03024    1.000
    Si5526   Si       0.80867    0.90290    0.02041    1.000
    N5527    N        0.83759    0.98237    0.03865    1.000
    N5528    N        0.85267    0.89709    0.02291    1.000
    N5529    N        0.79400    0.92586    0.05483    1.000
    N5530    N        0.96813    0.88512    0.02230    1.000
    Si5531   Si       0.93577    0.95573    0.01166    1.000
    Si5532   Si       0.98723    0.91627    0.04750    1.000
    N5533    N        0.91360    0.92137    0.99746    1.000
    N5534    N        0.90586    0.98435    0.02271    1.000
    N5535    N        0.96325    0.95206    0.04451    1.000
    Si5536   Si       0.87787    0.98822    0.05339    1.000
    N5537    N        0.77172    0.86674    0.08508    1.000
    N5538    N        0.83799    0.84263    0.07742    1.000
    Si5539   Si       0.74819    0.78168    0.07573    1.000
    Si5540   Si       0.79792    0.83971    0.06157    1.000
    N5541    N        0.74448    0.80890    0.10853    1.000
    Si5542   Si       0.85500    0.82842    0.11372    1.000
    Si5543   Si       0.98274    0.83137    0.10228    1.000
    N5544    N        0.92433    0.76268    0.07775    1.000
    Si5545   Si       0.91146    0.85472    0.09168    1.000
    N5546    N        0.94923    0.86018    0.11010    1.000
    Si5547   Si       0.92672    0.78724    0.11324    1.000
    N5548    N        0.78882    0.98456    0.09764    1.000
    Si5549   Si       0.75889    0.90926    0.07766    1.000
    Si5550   Si       0.79844    0.96899    0.05894    1.000
    Si5551   Si       0.98384    0.98806    0.05759    1.000
    Si5552   Si       0.89323    0.92736    0.10692    1.000
    Si5553   Si       0.93032    0.97550    0.10673    1.000
    N5554    N        0.89318    0.96185    0.08308    1.000
    N5555    N        0.88532    0.88924    0.09098    1.000
    N5556    N        0.96059    0.00196    0.09193    1.000
    N5557    N        0.93709    0.93286    0.11716    1.000
    N5558    N        0.84824    0.85825    0.14608    1.000
    Si5559   Si       0.75419    0.84738    0.12219    1.000
    N5560    N        0.82821    0.79985    0.13313    1.000
    N5561    N        0.77830    0.84331    0.16003    1.000
    Si5562   Si       0.82030    0.83144    0.16641    1.000
    Si5563   Si       0.84035    0.75999    0.14149    1.000
    N5564    N        0.91832    0.75946    0.14623    1.000
    N5565    N        0.96982    0.79359    0.11664    1.000
    N5566    N        0.89633    0.81851    0.10920    1.000
    Si5567   Si       0.76629    0.96611    0.13005    1.000
    N5568    N        0.75390    0.92847    0.11591    1.000
    N5569    N        0.78497    0.96450    0.17108    1.000
    Si5570   Si       0.86791    0.89150    0.16652    1.000
    N5571    N        0.87722    0.92855    0.14688    1.000
    Si5572   Si       0.89533    0.96181    0.16810    1.000
    Si5573   Si       0.96649    0.90040    0.12284    1.000
    N5574    N        0.97271    0.90542    0.16677    1.000
    N5575    N        0.90904    0.99333    0.13927    1.000
    N5576    N        0.83211    0.82152    0.20632    1.000
    Si5577   Si       0.84090    0.78164    0.21768    1.000
    N5578    N        0.75900    0.81013    0.22259    1.000
    Si5579   Si       0.76491    0.76670    0.21605    1.000
    N5580    N        0.85719    0.76331    0.18023    1.000
    Si5581   Si       0.74884    0.83732    0.19110    1.000
    N5582    N        0.80596    0.75915    0.22772    1.000
    N5583    N        0.76075    0.76241    0.17100    1.000
    N5584    N        0.97598    0.76784    0.20303    1.000
    Si5585   Si       0.91820    0.84965    0.20897    1.000
    N5586    N        0.90614    0.81115    0.19335    1.000
    N5587    N        0.96014    0.84668    0.21399    1.000
    Si5588   Si       0.89989    0.77044    0.18308    1.000
    Si5589   Si       0.98255    0.81182    0.20964    1.000
    N5590    N        0.90721    0.88289    0.18255    1.000
    N5591    N        0.85868    0.96920    0.19037    1.000
    N5592    N        0.84095    0.90304    0.20100    1.000
    Si5593   Si       0.75798    0.94745    0.20386    1.000
    Si5594   Si       0.84917    0.93940    0.21968    1.000
    Si5595   Si       0.82308    0.98821    0.17255    1.000
    N5596    N        0.73682    0.98094    0.22471    1.000
    Si5597   Si       0.95942    0.98139    0.21964    1.000
    N5598    N        0.93304    0.95727    0.19295    1.000
    Si5599   Si       0.93790    0.91324    0.19187    1.000
    N5600    N        0.76394    0.85857    0.27545    1.000
    Si5601   Si       0.85469    0.83508    0.24430    1.000
    N5602    N        0.83897    0.84559    0.28486    1.000
    N5603    N        0.86462    0.79193    0.25153    1.000
    N5604    N        0.93605    0.79145    0.25731    1.000
    Si5605   Si       0.89807    0.78800    0.27907    1.000
    Si5606   Si       0.96685    0.81264    0.27888    1.000
    N5607    N        0.89233    0.85604    0.24341    1.000
    Si5608   Si       0.97027    0.87524    0.24366    1.000
    N5609    N        0.97186    0.85596    0.28426    1.000
    Si5610   Si       0.94757    0.75686    0.23270    1.000
    Si5611   Si       0.79305    0.94218    0.27412    1.000
    N5612    N        0.82029    0.96099    0.24482    1.000
    N5613    N        0.76205    0.92568    0.24425    1.000
    Si5614   Si       0.83300    0.00244    0.24138    1.000
    Si5615   Si       0.74185    0.89238    0.25650    1.000
    Si5616   Si       0.74061    0.98298    0.26768    1.000
    N5617    N        0.88256    0.93220    0.24689    1.000
    Si5618   Si       0.89972    0.96875    0.26287    1.000
    N5619    N        0.93905    0.90242    0.23602    1.000
    N5620    N        0.94327    0.97370    0.25985    1.000
    N5621    N        0.87824    0.00417    0.24667    1.000
    Si5622   Si       0.90110    0.89632    0.25900    1.000
    N5623    N        0.78874    0.84842    0.33824    1.000
    Si5624   Si       0.80005    0.86475    0.29813    1.000
    Si5625   Si       0.87214    0.85265    0.31183    1.000
    N5626    N        0.89882    0.81667    0.31204    1.000
    N5627    N        0.97295    0.78717    0.31433    1.000
    Si5628   Si       0.90478    0.78676    0.34431    1.000
    N5629    N        0.82452    0.99594    0.33998    1.000
    Si5630   Si       0.78052    0.99667    0.33470    1.000
    N5631    N        0.77384    0.97472    0.29472    1.000
    N5632    N        0.80610    0.90871    0.29558    1.000
    Si5633   Si       0.96276    0.98794    0.29558    1.000
    N5634    N        0.89734    0.96186    0.30716    1.000
    Si5635   Si       0.89781    0.99782    0.32956    1.000
    Si5636   Si       0.90231    0.92445    0.32780    1.000
    N5637    N        0.89516    0.89126    0.30116    1.000
    N5638    N        0.98715    0.95975    0.31751    1.000
    Si5639   Si       0.78126    0.78711    0.38621    1.000
    Si5640   Si       0.81972    0.82729    0.36128    1.000
    Si5641   Si       0.74987    0.85008    0.35719    1.000
    N5642    N        0.81435    0.78400    0.35709    1.000
    N5643    N        0.80692    0.82497    0.40262    1.000
    N5644    N        0.74538    0.81377    0.38297    1.000
    N5645    N        0.85598    0.84827    0.35182    1.000
    N5646    N        0.74337    0.87657    0.39089    1.000
    N5647    N        0.93710    0.80259    0.36790    1.000
    N5648    N        0.91760    0.86647    0.39160    1.000
    Si5649   Si       0.87572    0.87408    0.38051    1.000
    Si5650   Si       0.93395    0.82824    0.40464    1.000
    N5651    N        0.87767    0.76386    0.37080    1.000
    N5652    N        0.98157    0.85392    0.35193    1.000
    Si5653   Si       0.97597    0.81005    0.35258    1.000
    Si5654   Si       0.83957    0.99563    0.38110    1.000
    Si5655   Si       0.75760    0.98050    0.39590    1.000
    N5656    N        0.76921    0.94030    0.40212    1.000
    N5657    N        0.79270    0.00583    0.39372    1.000
    N5658    N        0.74291    0.98430    0.35333    1.000
    N5659    N        0.83953    0.95848    0.40338    1.000
    N5660    N        0.93705    0.93141    0.35451    1.000
    N5661    N        0.88568    0.98550    0.36900    1.000
    Si5662   Si       0.93488    0.90915    0.39436    1.000
    N5663    N        0.87728    0.91411    0.36325    1.000
    Si5664   Si       0.87937    0.94779    0.39199    1.000
    Si5665   Si       0.97967    0.93995    0.35826    1.000
    N5666    N        0.97783    0.90937    0.40136    1.000
    Si5667   Si       0.80235    0.81530    0.44429    1.000
    N5668    N        0.76086    0.83431    0.45495    1.000
    N5669    N        0.78701    0.77219    0.42770    1.000
    N5670    N        0.82802    0.84323    0.46694    1.000
    N5671    N        0.85485    0.88022    0.41632    1.000
    N5672    N        0.91367    0.79843    0.42819    1.000
    N5673    N        0.97592    0.83015    0.42007    1.000
    Si5674   Si       0.97044    0.84245    0.46308    1.000
    Si5675   Si       0.89345    0.76088    0.41104    1.000
    N5676    N        0.92602    0.85344    0.46402    1.000
    Si5677   Si       0.84440    0.88288    0.45749    1.000
    Si5678   Si       0.80571    0.94485    0.42669    1.000
    N5679    N        0.79544    0.97201    0.45780    1.000
    N5680    N        0.81367    0.91436    0.45764    1.000
    Si5681   Si       0.76728    0.00508    0.46186    1.000
    N5682    N        0.96553    0.96278    0.45559    1.000
    Si5683   Si       0.92292    0.96820    0.44971    1.000
    N5684    N        0.90943    0.00550    0.43369    1.000
    N5685    N        0.91357    0.93845    0.41759    1.000
    Si5686   Si       0.98740    0.94844    0.42239    1.000
    Si5687   Si       0.83847    0.82019    0.50101    1.000
    N5688    N        0.82317    0.78161    0.48383    1.000
    Si5689   Si       0.74862    0.83667    0.49666    1.000
    Si5690   Si       0.79067    0.77416    0.51254    1.000
    N5691    N        0.78376    0.81840    0.51713    1.000
    N5692    N        0.75461    0.76372    0.49143    1.000
    Si5693   Si       0.86676    0.76552    0.48123    1.000
    N5694    N        0.98798    0.87886    0.47641    1.000
    N5695    N        0.87996    0.80695    0.49651    1.000
    N5696    N        0.95930    0.80558    0.48470    1.000
    Si5697   Si       0.97380    0.76516    0.49420    1.000
    Si5698   Si       0.91075    0.87878    0.49724    1.000
    Si5699   Si       0.91767    0.80867    0.47119    1.000
    N5700    N        0.75958    0.99851    0.50568    1.000
    N5701    N        0.83965    0.95491    0.51014    1.000
    Si5702   Si       0.80282    0.94262    0.49070    1.000
    N5703    N        0.77415    0.93312    0.52187    1.000
    Si5704   Si       0.86396    0.92116    0.52413    1.000
    N5705    N        0.87139    0.89270    0.49109    1.000
    Si5706   Si       0.86547    0.98914    0.50039    1.000
    N5707    N        0.90263    0.96857    0.48741    1.000
    Si5708   Si       0.92587    0.95434    0.52060    1.000
    N5709    N        0.93741    0.91446    0.50579    1.000
    Si5710   Si       0.97862    0.90120    0.51184    1.000
    Si5711   Si       0.79948    0.82849    0.55517    1.000
    N5712    N        0.79347    0.86919    0.56623    1.000
    N5713    N        0.84232    0.82468    0.54428    1.000
    N5714    N        0.78658    0.79799    0.58014    1.000
    Si5715   Si       0.88646    0.81797    0.54577    1.000
    Si5716   Si       0.94191    0.85357    0.56758    1.000
    N5717    N        0.90579    0.77774    0.55533    1.000
    N5718    N        0.97460    0.87014    0.54258    1.000
    N5719    N        0.90888    0.85544    0.53360    1.000
    N5720    N        0.96363    0.81388    0.57929    1.000
    N5721    N        0.74953    0.97678    0.57419    1.000
    Si5722   Si       0.76540    0.89640    0.54658    1.000
    N5723    N        0.85456    0.89695    0.55895    1.000
    Si5724   Si       0.74726    0.96560    0.53064    1.000
    Si5725   Si       0.88333    0.97754    0.56994    1.000
    N5726    N        0.89561    0.94097    0.55056    1.000
    Si5727   Si       0.89127    0.90816    0.58024    1.000
    N5728    N        0.95004    0.99100    0.52800    1.000
    N5729    N        0.88030    0.00713    0.53759    1.000
    Si5730   Si       0.78035    0.78540    0.62025    1.000
    N5731    N        0.83787    0.85853    0.61734    1.000
    N5732    N        0.75005    0.87699    0.63124    1.000
    Si5733   Si       0.87805    0.84175    0.62522    1.000
    N5734    N        0.93909    0.78366    0.63111    1.000
    N5735    N        0.90131    0.82894    0.59195    1.000
    Si5736   Si       0.92666    0.79323    0.59062    1.000
    Si5737   Si       0.82605    0.88780    0.58845    1.000
    Si5738   Si       0.83853    0.94878    0.61929    1.000
    N5739    N        0.80606    0.92239    0.60580    1.000
    Si5740   Si       0.77532    0.91312    0.63458    1.000
    N5741    N        0.74473    0.94417    0.63792    1.000
    N5742    N        0.84457    0.97966    0.59075    1.000
    N5743    N        0.87247    0.92004    0.61810    1.000
    Si5744   Si       0.95502    0.98257    0.61609    1.000
    N5745    N        0.97525    0.94631    0.60729    1.000
    Si5746   Si       0.95625    0.90824    0.61950    1.000
    N5747    N        0.93018    0.89084    0.58907    1.000
    N5748    N        0.91880    0.98706    0.59203    1.000
    Si5749   Si       0.82290    0.83742    0.65386    1.000
    Si5750   Si       0.75021    0.84307    0.65933    1.000
    N5751    N        0.83773    0.84345    0.69466    1.000
    N5752    N        0.75994    0.86145    0.69676    1.000
    N5753    N        0.85591    0.80691    0.64873    1.000
    N5754    N        0.78548    0.81997    0.64537    1.000
    Si5755   Si       0.85304    0.76273    0.64700    1.000
    Si5756   Si       0.87063    0.80914    0.69332    1.000
    Si5757   Si       0.92738    0.86023    0.68660    1.000
    N5758    N        0.96560    0.84626    0.66981    1.000
    Si5759   Si       0.96801    0.80458    0.65737    1.000
    N5760    N        0.89859    0.86577    0.65473    1.000
    N5761    N        0.88744    0.76916    0.68296    1.000
    N5762    N        0.96376    0.78470    0.69464    1.000
    Si5763   Si       0.83328    0.93784    0.68822    1.000
    N5764    N        0.79883    0.91371    0.67129    1.000
    N5765    N        0.83923    0.96702    0.65836    1.000
    N5766    N        0.76131    0.99545    0.68445    1.000
    Si5767   Si       0.73955    0.95428    0.67979    1.000
    N5768    N        0.94534    0.98797    0.65909    1.000
    N5769    N        0.93464    0.92201    0.65555    1.000
    Si5770   Si       0.94423    0.95352    0.68396    1.000
    Si5771   Si       0.89265    0.90799    0.65553    1.000
    N5772    N        0.87056    0.91645    0.69136    1.000
    N5773    N        0.98171    0.94347    0.70473    1.000
    Si5774   Si       0.82344    0.85049    0.73420    1.000
    N5775    N        0.85337    0.79123    0.73163    1.000
    Si5776   Si       0.75295    0.82918    0.72762    1.000
    N5777    N        0.79170    0.82314    0.74136    1.000
    Si5778   Si       0.81058    0.78448    0.74970    1.000
    N5779    N        0.73831    0.79572    0.70318    1.000
    Si5780   Si       0.94043    0.80041    0.72725    1.000
    N5781    N        0.91609    0.76640    0.74296    1.000
    N5782    N        0.91029    0.82679    0.70888    1.000
    N5783    N        0.96321    0.82340    0.75638    1.000
    Si5784   Si       0.82760    0.92746    0.75573    1.000
    N5785    N        0.80725    0.89400    0.73791    1.000
    N5786    N        0.82621    0.95756    0.72627    1.000
    Si5787   Si       0.82149    0.00129    0.73355    1.000
    Si5788   Si       0.78188    0.89777    0.70563    1.000
    N5789    N        0.74559    0.92227    0.71062    1.000
    N5790    N        0.92089    0.95812    0.72019    1.000
    N5791    N        0.93192    0.89064    0.71818    1.000
    N5792    N        0.97876    0.99557    0.74612    1.000
    Si5793   Si       0.96886    0.90914    0.72958    1.000
    Si5794   Si       0.94695    0.96795    0.75493    1.000
    Si5795   Si       0.89686    0.92033    0.72558    1.000
    N5796    N        0.82745    0.78264    0.78896    1.000
    N5797    N        0.85313    0.84706    0.76755    1.000
    Si5798   Si       0.86404    0.80603    0.77327    1.000
    N5799    N        0.89339    0.80083    0.80214    1.000
    N5800    N        0.91262    0.86849    0.79404    1.000
    N5801    N        0.97920    0.87666    0.80891    1.000
    Si5802   Si       0.87145    0.88025    0.78655    1.000
    N5803    N        0.74134    0.92452    0.81488    1.000
    N5804    N        0.78295    0.00266    0.80857    1.000
    Si5805   Si       0.82222    0.98183    0.80486    1.000
    N5806    N        0.81111    0.94135    0.79222    1.000
    N5807    N        0.83840    0.00503    0.77300    1.000
    N5808    N        0.95599    0.92710    0.76711    1.000
    Si5809   Si       0.94304    0.90006    0.79720    1.000
    N5810    N        0.93931    0.98755    0.79467    1.000
    N5811    N        0.87050    0.91443    0.75927    1.000
    Si5812   Si       0.82496    0.87195    0.84787    1.000
    Si5813   Si       0.77252    0.83137    0.84182    1.000
    N5814    N        0.81698    0.83031    0.83820    1.000
    N5815    N        0.77040    0.78982    0.83306    1.000
    Si5816   Si       0.81599    0.78793    0.83045    1.000
    N5817    N        0.73713    0.85162    0.82540    1.000
    N5818    N        0.94562    0.80290    0.83698    1.000
    N5819    N        0.90849    0.85178    0.85748    1.000
    Si5820   Si       0.92270    0.77031    0.81696    1.000
    Si5821   Si       0.91699    0.83327    0.81939    1.000
    N5822    N        0.85831    0.88792    0.82703    1.000
    N5823    N        0.78852    0.94904    0.86106    1.000
    N5824    N        0.84419    0.98280    0.84195    1.000
    N5825    N        0.78508    0.89087    0.84453    1.000
    Si5826   Si       0.78474    0.92904    0.82252    1.000
    Si5827   Si       0.73946    0.89078    0.84204    1.000
    N5828    N        0.97565    0.96345    0.85078    1.000
    N5829    N        0.92240    0.92384    0.82791    1.000
    Si5830   Si       0.93681    0.96383    0.83010    1.000
    N5831    N        0.91387    0.98673    0.85912    1.000
    Si5832   Si       0.89589    0.89354    0.84757    1.000
    Si5833   Si       0.79765    0.84477    0.91291    1.000
    N5834    N        0.82488    0.81127    0.91355    1.000
    N5835    N        0.76386    0.83162    0.88598    1.000
    N5836    N        0.82331    0.87616    0.89282    1.000
    Si5837   Si       0.86510    0.80082    0.92035    1.000
    Si5838   Si       0.97264    0.87367    0.91586    1.000
    N5839    N        0.95497    0.83433    0.90944    1.000
    N5840    N        0.88515    0.83956    0.92246    1.000
    Si5841   Si       0.97800    0.79995    0.92252    1.000
    Si5842   Si       0.91557    0.82630    0.89229    1.000
    N5843    N        0.88929    0.79043    0.88386    1.000
    N5844    N        0.94666    0.77580    0.93868    1.000
    Si5845   Si       0.85497    0.90073    0.91230    1.000
    N5846    N        0.82263    0.93367    0.91303    1.000
    N5847    N        0.75980    0.90340    0.91931    1.000
    Si5848   Si       0.79276    0.91209    0.88919    1.000
    N5849    N        0.80006    0.99971    0.89738    1.000
    Si5850   Si       0.82819    0.97050    0.88325    1.000
    Si5851   Si       0.76409    0.98307    0.87801    1.000
    Si5852   Si       0.89883    0.95574    0.88665    1.000
    N5853    N        0.92337    0.95593    0.92323    1.000
    N5854    N        0.86610    0.97842    0.90632    1.000
    N5855    N        0.88524    0.91359    0.88432    1.000
    N5856    N        0.96942    0.89562    0.87839    1.000
    N5857    N        0.78883    0.85570    0.95356    1.000
    N5858    N        0.85247    0.82708    0.98021    1.000
    N5859    N        0.78944    0.79753    0.98381    1.000
    Si5860   Si       0.81011    0.83613    0.98468    1.000
    Si5861   Si       0.75093    0.79518    0.96522    1.000
    Si5862   Si       0.86572    0.78617    0.99195    1.000
    N5863    N        0.87265    0.76957    0.95187    1.000
    Si5864   Si       0.87959    0.85462    0.96259    1.000
    N5865    N        0.91584    0.85365    0.98612    1.000
    Si5866   Si       0.76588    0.89263    0.95998    1.000
    N5867    N        0.80027    0.98424    0.97195    1.000
    N5868    N        0.79167    0.92183    0.98223    1.000
    Si5869   Si       0.82057    0.94605    0.95341    1.000
    N5870    N        0.85867    0.95828    0.97331    1.000
    N5871    N        0.86278    0.89472    0.95433    1.000
    Si5872   Si       0.76862    0.96185    0.99307    1.000
    Si5873   Si       0.83815    0.99179    0.99573    1.000
    N5874    N        0.96291    0.95657    0.97910    1.000
    Si5875   Si       0.88853    0.97718    0.94509    1.000
    Si5876   Si       0.87203    0.91874    0.98891    1.000
    Si5877   Si       0.94165    0.88876    0.98812    1.000
    Si5878   Si       0.96010    0.94075    0.93737    1.000
    N5879    N        0.95531    0.89694    0.94723    1.000
