# CIF file generated by openbabel 3.1.1, see https://openbabel.org
data_I
_chemical_name_common '3.01-92.aims'
_cell_length_a 39.881
_cell_length_b 39.881
_cell_length_c 39.881
_cell_angle_alpha 90
_cell_angle_beta 90
_cell_angle_gamma 90
loop_
    _atom_site_label
    _atom_site_type_symbol
    _atom_site_fract_x
    _atom_site_fract_y
    _atom_site_fract_z
    _atom_site_occupancy
    N0       N        0.01791    0.05686    0.04538    1.000
    Si1      Si       0.01524    0.08347    0.01169    1.000
    N2       N        0.03544    0.12079    0.02052    1.000
    N3       N        0.03029    0.04290    0.11517    1.000
    N4       N        0.04447    0.10571    0.08865    1.000
    Si5      Si       0.04657    0.06298    0.07880    1.000
    Si6      Si       0.99478    0.23984    0.08947    1.000
    N7       N        0.01383    0.23465    0.05068    1.000
    N8       N        0.02675    0.17131    0.06496    1.000
    Si9      Si       0.01146    0.19640    0.03250    1.000
    Si10     Si       0.99570    0.16598    0.09552    1.000
    Si11     Si       0.03938    0.12347    0.12721    1.000
    N12      N        0.02073    0.09568    0.15504    1.000
    N13      N        0.02569    0.10655    0.23265    1.000
    Si14     Si       0.04726    0.05999    0.15099    1.000
    N15      N        0.02413    0.25397    0.12160    1.000
    N16      N        0.04041    0.24408    0.19304    1.000
    N17      N        0.04425    0.17378    0.19090    1.000
    N18      N        0.99875    0.20159    0.23881    1.000
    Si19     Si       0.00401    0.17166    0.17426    1.000
    Si20     Si       0.00895    0.24471    0.16243    1.000
    Si21     Si       0.03831    0.20710    0.21924    1.000
    N22      N        0.00809    0.15379    0.13404    1.000
    N23      N        0.02898    0.02885    0.24061    1.000
    N24      N        0.02143    0.06991    0.29445    1.000
    N25      N        0.03629    0.10449    0.36020    1.000
    Si26     Si       0.03689    0.06863    0.25410    1.000
    Si27     Si       0.00684    0.01665    0.34629    1.000
    Si28     Si       0.99772    0.12607    0.36084    1.000
    Si29     Si       0.05018    0.07094    0.33136    1.000
    N30      N        0.03250    0.19072    0.30179    1.000
    Si31     Si       0.99612    0.20534    0.28280    1.000
    N32      N        0.00014    0.16729    0.37654    1.000
    N33      N        0.00861    0.07888    0.48525    1.000
    Si34     Si       0.03459    0.06788    0.45398    1.000
    N35      N        0.01518    0.03522    0.43364    1.000
    N36      N        0.03050    0.16913    0.44156    1.000
    Si37     Si       0.99852    0.17167    0.47161    1.000
    Si38     Si       0.03531    0.18242    0.39958    1.000
    N39      N        0.02372    0.09040    0.54797    1.000
    Si40     Si       0.02310    0.11349    0.51030    1.000
    N41      N        0.00144    0.03574    0.60151    1.000
    Si42     Si       0.03857    0.01372    0.60172    1.000
    Si43     Si       0.99488    0.06412    0.56857    1.000
    Si44     Si       0.03309    0.17059    0.59969    1.000
    N45      N        0.01226    0.21753    0.54426    1.000
    N46      N        0.00921    0.15396    0.50993    1.000
    Si47     Si       0.00870    0.24161    0.50415    1.000
    N48      N        0.99151    0.16624    0.58388    1.000
    N49      N        0.03513    0.20810    0.62149    1.000
    N50      N        0.99609    0.06356    0.72765    1.000
    N51      N        0.03366    0.11037    0.68578    1.000
    Si52     Si       0.03370    0.07832    0.71499    1.000
    Si53     Si       0.04242    0.01637    0.66983    1.000
    N54      N        0.99664    0.01849    0.66694    1.000
    Si55     Si       0.99410    0.12292    0.67057    1.000
    Si56     Si       0.02135    0.19319    0.66093    1.000
    N57      N        0.00238    0.22493    0.68535    1.000
    N58      N        0.99419    0.16046    0.65006    1.000
    Si59     Si       0.01538    0.24287    0.72352    1.000
    Si60     Si       0.98642    0.24917    0.56485    1.000
    Si61     Si       0.99109    0.17824    0.54193    1.000
    N62      N        0.02807    0.21203    0.74932    1.000
    Si63     Si       0.03607    0.11517    0.77918    1.000
    N64      N        0.99481    0.10502    0.78766    1.000
    N65      N        0.01879    0.07372    0.86620    1.000
    Si66     Si       0.02750    0.24243    0.84120    1.000
    Si67     Si       0.01566    0.17114    0.85684    1.000
    Si68     Si       0.00716    0.18191    0.77449    1.000
    N69      N        0.99826    0.16388    0.81707    1.000
    N70      N        0.04034    0.15431    0.76381    1.000
    N71      N        0.99898    0.25545    0.81396    1.000
    N72      N        0.01164    0.21264    0.86993    1.000
    N73      N        0.03446    0.00737    0.78346    1.000
    N74      N        0.04490    0.07474    0.98082    1.000
    Si75     Si       0.01479    0.03291    0.88426    1.000
    N76      N        0.04533    0.03309    0.91452    1.000
    N77      N        0.04438    0.17402    0.92805    1.000
    Si78     Si       0.01355    0.24349    0.97758    1.000
    Si79     Si       0.00527    0.23808    0.90780    1.000
    Si80     Si       0.00046    0.16998    0.92597    1.000
    N81      N        0.03227    0.24920    0.93874    1.000
    N82      N        0.99606    0.14807    0.88886    1.000
    N83      N        0.02921    0.20390    0.99134    1.000
    Si84     Si       0.98965    0.10462    0.88144    1.000
    N85      N        0.03265    0.33758    0.03940    1.000
    Si86     Si       0.01145    0.34712    0.07838    1.000
    N87      N        0.02588    0.32465    0.11326    1.000
    Si88     Si       0.01975    0.31518    0.00551    1.000
    N89      N        0.03319    0.27192    0.00329    1.000
    Si90     Si       0.03382    0.38326    0.03423    1.000
    N91      N        0.02334    0.38938    0.07654    1.000
    N92      N        0.02256    0.45912    0.08856    1.000
    Si93     Si       0.01104    0.49171    0.06199    1.000
    Si94     Si       0.00044    0.42364    0.09425    1.000
    N95      N        0.99995    0.40224    0.01424    1.000
    Si96     Si       0.99886    0.29356    0.12183    1.000
    Si97     Si       0.02992    0.33973    0.20733    1.000
    N98      N        0.02928    0.36184    0.16997    1.000
    N99      N        0.01269    0.48403    0.21689    1.000
    Si100    Si       0.03409    0.40192    0.15367    1.000
    N101     N        0.99663    0.41572    0.13572    1.000
    Si102    Si       0.04988    0.46967    0.19130    1.000
    N103     N        0.03924    0.42594    0.19116    1.000
    N104     N        0.99313    0.32697    0.22340    1.000
    N105     N        0.04016    0.50524    0.03329    1.000
    N106     N        0.01449    0.31592    0.29588    1.000
    Si107    Si       0.01231    0.27752    0.31380    1.000
    Si108    Si       0.04119    0.34496    0.31393    1.000
    N109     N        0.04022    0.33848    0.35681    1.000
    N110     N        0.99484    0.28613    0.35435    1.000
    N111     N        0.03485    0.38723    0.30458    1.000
    Si112    Si       0.02356    0.46322    0.25788    1.000
    N113     N        0.03811    0.49664    0.28218    1.000
    Si114    Si       0.99356    0.40432    0.29769    1.000
    N115     N        0.98931    0.44104    0.27217    1.000
    Si116    Si       0.00092    0.32338    0.37279    1.000
    N117     N        0.00835    0.31318    0.41507    1.000
    Si118    Si       0.04735    0.32781    0.49412    1.000
    N119     N        0.04973    0.40000    0.37580    1.000
    Si120    Si       0.00269    0.39614    0.37224    1.000
    Si121    Si       0.99736    0.47490    0.47477    1.000
    Si122    Si       0.04239    0.43286    0.43011    1.000
    N123     N        0.99993    0.42102    0.40878    1.000
    N124     N        0.03578    0.46300    0.46132    1.000
    Si125    Si       0.04023    0.49760    0.39283    1.000
    N126     N        0.99621    0.49155    0.39039    1.000
    Si127    Si       0.00765    0.30831    0.60890    1.000
    Si128    Si       0.00727    0.31269    0.53730    1.000
    N129     N        0.01321    0.26684    0.59438    1.000
    N130     N        0.99311    0.33030    0.57478    1.000
    N131     N        0.03309    0.38183    0.60004    1.000
    N132     N        0.99859    0.39385    0.54758    1.000
    N133     N        0.02343    0.44863    0.57278    1.000
    Si134    Si       0.01207    0.47912    0.54510    1.000
    Si135    Si       0.03647    0.40731    0.56534    1.000
    Si136    Si       0.04496    0.45834    0.60739    1.000
    N137     N        0.04911    0.49454    0.52623    1.000
    N138     N        0.00013    0.38634    0.73772    1.000
    N139     N        0.01672    0.48539    0.69188    1.000
    N140     N        0.99834    0.31429    0.70492    1.000
    Si141    Si       0.03698    0.31084    0.72637    1.000
    N142     N        0.02035    0.37304    0.66827    1.000
    N143     N        0.04633    0.31960    0.62489    1.000
    Si144    Si       0.03425    0.37979    0.70987    1.000
    Si145    Si       0.00232    0.41060    0.65042    1.000
    N146     N        0.03395    0.44021    0.64440    1.000
    N147     N        0.00435    0.33413    0.49716    1.000
    Si148    Si       0.00049    0.35697    0.84488    1.000
    N149     N        0.01408    0.37393    0.80768    1.000
    N150     N        0.03565    0.31668    0.77004    1.000
    N151     N        0.04114    0.33576    0.84742    1.000
    N152     N        0.03710    0.27616    0.86802    1.000
    Si153    Si       0.04559    0.34139    0.80363    1.000
    N154     N        0.01614    0.44725    0.83965    1.000
    Si155    Si       0.00495    0.40327    0.77725    1.000
    N156     N        0.04163    0.42651    0.77831    1.000
    Si157    Si       0.00255    0.29984    0.87854    1.000
    Si158    Si       0.02608    0.35654    0.93646    1.000
    N159     N        0.00094    0.33279    0.90952    1.000
    N160     N        0.04067    0.33417    0.97154    1.000
    N161     N        0.99098    0.37905    0.95026    1.000
    Si162    Si       0.00488    0.41413    0.97274    1.000
    N163     N        0.00877    0.44203    0.90694    1.000
    Si164    Si       0.99476    0.47614    0.93109    1.000
    N165     N        0.04565    0.42063    0.96406    1.000
    Si166    Si       0.02467    0.55985    0.09346    1.000
    Si167    Si       0.02900    0.54767    0.02501    1.000
    N168     N        0.00022    0.52596    0.08700    1.000
    N169     N        0.00000    0.59317    0.10637    1.000
    Si170    Si       0.03129    0.62188    0.11634    1.000
    N171     N        0.04424    0.57324    0.05763    1.000
    N172     N        0.99311    0.60744    0.21838    1.000
    Si173    Si       0.02334    0.63777    0.02349    1.000
    N174     N        0.02185    0.68144    0.02622    1.000
    N175     N        0.01048    0.72713    0.07557    1.000
    N176     N        0.02093    0.65656    0.09407    1.000
    Si177    Si       0.00397    0.68445    0.06703    1.000
    N178     N        0.04552    0.75122    0.11863    1.000
    Si179    Si       0.00215    0.75601    0.10741    1.000
    Si180    Si       0.99825    0.59778    0.17700    1.000
    N181     N        0.99801    0.55413    0.18008    1.000
    Si182    Si       0.01985    0.52776    0.20728    1.000
    N183     N        0.03201    0.62049    0.16022    1.000
    N184     N        0.01141    0.54695    0.24576    1.000
    Si185    Si       0.00727    0.64358    0.23879    1.000
    N186     N        0.04145    0.65997    0.21631    1.000
    N187     N        0.03233    0.72804    0.17972    1.000
    Si188    Si       0.99415    0.75162    0.18381    1.000
    N189     N        0.02790    0.72131    0.24734    1.000
    N190     N        0.04111    0.74605    0.99550    1.000
    Si191    Si       0.03812    0.55583    0.35274    1.000
    Si192    Si       0.03959    0.53939    0.27770    1.000
    N193     N        0.03661    0.56760    0.31130    1.000
    Si194    Si       0.04420    0.60794    0.30375    1.000
    N195     N        0.04055    0.63294    0.33958    1.000
    N196     N        0.04957    0.51420    0.35205    1.000
    N197     N        0.01381    0.63088    0.27926    1.000
    N198     N        0.00767    0.68565    0.31679    1.000
    Si199    Si       0.00176    0.72779    0.31362    1.000
    N200     N        0.04153    0.74571    0.30978    1.000
    Si201    Si       0.04503    0.67642    0.34140    1.000
    Si202    Si       0.99148    0.73536    0.49646    1.000
    N203     N        0.03197    0.68430    0.38185    1.000
    N204     N        0.00017    0.55980    0.37533    1.000
    Si205    Si       0.01460    0.62036    0.44219    1.000
    N206     N        0.02516    0.58353    0.46148    1.000
    Si207    Si       0.03426    0.54118    0.45645    1.000
    N208     N        0.00873    0.62240    0.39781    1.000
    N209     N        0.00203    0.51804    0.47250    1.000
    Si210    Si       0.99603    0.66450    0.39135    1.000
    N211     N        0.04217    0.65573    0.44856    1.000
    N212     N        0.00807    0.69558    0.49088    1.000
    Si213    Si       0.03998    0.66572    0.49148    1.000
    N214     N        0.03594    0.56369    0.52949    1.000
    N215     N        0.99928    0.51721    0.56317    1.000
    Si216    Si       0.99737    0.55736    0.54499    1.000
    Si217    Si       0.01087    0.51529    0.60535    1.000
    N218     N        0.02458    0.62978    0.51314    1.000
    Si219    Si       0.04127    0.59400    0.49930    1.000
    N220     N        0.98825    0.59461    0.56998    1.000
    Si221    Si       0.00617    0.63376    0.55325    1.000
    N222     N        0.03627    0.66021    0.57076    1.000
    Si223    Si       0.02260    0.68506    0.60229    1.000
    Si224    Si       0.00441    0.75076    0.56627    1.000
    N225     N        0.99735    0.71945    0.59478    1.000
    N226     N        0.04163    0.75355    0.54404    1.000
    N227     N        0.01563    0.54864    0.63076    1.000
    N228     N        0.02910    0.60058    0.65655    1.000
    Si229    Si       0.02287    0.52574    0.70480    1.000
    Si230    Si       0.99204    0.57422    0.65826    1.000
    N231     N        0.99650    0.65390    0.62141    1.000
    Si232    Si       0.01377    0.63991    0.66125    1.000
    N233     N        0.03809    0.66596    0.68741    1.000
    N234     N        0.02497    0.73442    0.68346    1.000
    Si235    Si       0.03690    0.56903    0.82835    1.000
    Si236    Si       0.00775    0.60972    0.77614    1.000
    N237     N        0.04201    0.58552    0.78059    1.000
    N238     N        0.99269    0.57169    0.82510    1.000
    N239     N        0.02125    0.52439    0.74838    1.000
    Si240    Si       0.01275    0.74734    0.79516    1.000
    Si241    Si       0.01330    0.67097    0.78965    1.000
    N242     N        0.01052    0.73871    0.83776    1.000
    N243     N        0.04185    0.67823    0.82190    1.000
    Si244    Si       0.02850    0.70273    0.85539    1.000
    N245     N        0.01772    0.64893    0.75088    1.000
    N246     N        0.99062    0.63569    0.80410    1.000
    N247     N        0.99094    0.70835    0.78355    1.000
    N248     N        0.03954    0.55478    0.87163    1.000
    N249     N        0.03695    0.61981    0.92057    1.000
    Si250    Si       0.00865    0.53614    0.89578    1.000
    Si251    Si       0.02251    0.60224    0.88420    1.000
    N252     N        0.01977    0.51379    0.93357    1.000
    N253     N        0.03686    0.62617    0.98311    1.000
    Si254    Si       0.00725    0.62516    0.95135    1.000
    N255     N        0.04031    0.68092    0.94692    1.000
    Si256    Si       0.03507    0.70152    0.98847    1.000
    Si257    Si       0.00481    0.69684    0.93020    1.000
    N258     N        0.00176    0.69180    0.88519    1.000
    Si259    Si       0.00137    0.75817    0.98424    1.000
    N260     N        0.03422    0.73351    0.92015    1.000
    N261     N        0.99409    0.71911    0.96854    1.000
    N262     N        0.99209    0.57482    0.90534    1.000
    N263     N        0.01672    0.85725    0.07257    1.000
    Si264    Si       0.00428    0.83007    0.10376    1.000
    N265     N        0.04299    0.81563    0.00995    1.000
    N266     N        0.04287    0.87566    0.00952    1.000
    N267     N        0.99690    0.79117    0.08395    1.000
    Si268    Si       0.04595    0.84487    0.04209    1.000
    Si269    Si       0.01579    0.95891    0.04864    1.000
    N270     N        0.03461    0.99089    0.07103    1.000
    Si271    Si       0.01018    0.00718    0.10493    1.000
    N272     N        0.99069    0.93411    0.07604    1.000
    N273     N        0.03590    0.90934    0.23181    1.000
    Si274    Si       0.04184    0.86774    0.24233    1.000
    N275     N        0.03539    0.83323    0.13514    1.000
    N276     N        0.00378    0.79248    0.20085    1.000
    Si277    Si       0.02369    0.85965    0.16811    1.000
    Si278    Si       0.04573    0.79940    0.20923    1.000
    N279     N        0.04310    0.84463    0.20579    1.000
    Si280    Si       0.02835    0.92746    0.19342    1.000
    N281     N        0.03912    0.89908    0.16045    1.000
    N282     N        0.01220    0.98187    0.13880    1.000
    N283     N        0.04745    0.96656    0.19534    1.000
    N284     N        0.05015    0.93766    0.03348    1.000
    N285     N        0.99015    0.95894    0.25068    1.000
    N286     N        0.02132    0.83980    0.27114    1.000
    N287     N        0.04303    0.79108    0.36673    1.000
    Si288    Si       0.02476    0.93709    0.26185    1.000
    N289     N        0.01858    0.91676    0.29994    1.000
    Si290    Si       0.00461    0.00130    0.26646    1.000
    N291     N        0.00194    0.99862    0.30927    1.000
    Si292    Si       0.00063    0.78100    0.37227    1.000
    N293     N        0.00568    0.81615    0.44704    1.000
    Si294    Si       0.00448    0.84181    0.41028    1.000
    Si295    Si       0.02435    0.77737    0.44146    1.000
    Si296    Si       0.99807    0.83734    0.48491    1.000
    N297     N        0.02067    0.76144    0.47984    1.000
    N298     N        0.00037    0.75890    0.41012    1.000
    N299     N        0.02957    0.86917    0.49297    1.000
    N300     N        0.03026    0.92148    0.39592    1.000
    N301     N        0.02881    0.98215    0.47680    1.000
    N302     N        0.00074    0.99322    0.38366    1.000
    Si303    Si       0.03386    0.96393    0.38623    1.000
    Si304    Si       0.04662    0.00695    0.44646    1.000
    N305     N        0.98437    0.82372    0.37648    1.000
    Si306    Si       0.98724    0.91020    0.39533    1.000
    Si307    Si       0.03507    0.78554    0.51325    1.000
    N308     N        0.00265    0.81387    0.52207    1.000
    N309     N        0.03553    0.85790    0.61766    1.000
    N310     N        0.99046    0.78655    0.58771    1.000
    Si311    Si       0.01113    0.90505    0.50769    1.000
    N312     N        0.04074    0.93484    0.52317    1.000
    N313     N        0.99312    0.86916    0.69395    1.000
    N314     N        0.00974    0.80145    0.71032    1.000
    N315     N        0.03028    0.78810    0.64481    1.000
    Si316    Si       0.03497    0.77535    0.68652    1.000
    Si317    Si       0.01975    0.84375    0.71513    1.000
    Si318    Si       0.98983    0.79015    0.63157    1.000
    Si319    Si       0.99765    0.90514    0.66976    1.000
    N320     N        0.98940    0.94623    0.68118    1.000
    Si321    Si       0.99177    0.97676    0.64925    1.000
    Si322    Si       0.01406    0.96257    0.71385    1.000
    N323     N        0.02797    0.97826    0.62480    1.000
    N324     N        0.03987    0.91000    0.65868    1.000
    Si325    Si       0.99123    0.85548    0.61799    1.000
    N326     N        0.99009    0.99371    0.73056    1.000
    Si327    Si       0.01405    0.85425    0.79121    1.000
    Si328    Si       0.01985    0.81956    0.85759    1.000
    N329     N        0.03866    0.83082    0.81963    1.000
    N330     N        0.03569    0.85333    0.75300    1.000
    N331     N        0.98769    0.77935    0.77562    1.000
    Si332    Si       0.00281    0.92608    0.77952    1.000
    N333     N        0.02166    0.89682    0.80557    1.000
    N334     N        0.02767    0.00294    0.85395    1.000
    Si335    Si       0.99411    0.00115    0.77435    1.000
    Si336    Si       0.01836    0.96361    0.87227    1.000
    N337     N        0.99125    0.90375    0.90348    1.000
    N338     N        0.03328    0.84531    0.89097    1.000
    Si339    Si       0.03918    0.84657    0.97823    1.000
    N340     N        0.99794    0.78554    0.95012    1.000
    N341     N        0.02064    0.78349    0.88224    1.000
    Si342    Si       0.02929    0.77483    0.92170    1.000
    Si343    Si       0.99947    0.86200    0.91195    1.000
    N344     N        0.00278    0.85584    0.95655    1.000
    N345     N        0.01074    0.92084    0.96968    1.000
    Si346    Si       0.99617    0.93734    0.93171    1.000
    N347     N        0.02674    0.96620    0.91624    1.000
    Si348    Si       0.04588    0.91600    0.99606    1.000
    N349     N        0.02907    0.93550    0.74596    1.000
    N350     N        0.08296    0.03976    0.07584    1.000
    N351     N        0.10166    0.09441    0.01467    1.000
    Si352    Si       0.09726    0.19492    0.07086    1.000
    N353     N        0.08217    0.22122    0.10424    1.000
    N354     N        0.09120    0.15063    0.05827    1.000
    N355     N        0.08647    0.21965    0.03489    1.000
    Si356    Si       0.05279    0.24931    0.03573    1.000
    Si357    Si       0.05034    0.13611    0.05613    1.000
    N358     N        0.08806    0.07407    0.14327    1.000
    Si359    Si       0.06850    0.11947    0.23002    1.000
    N360     N        0.06245    0.02719    0.17715    1.000
    N361     N        0.09912    0.01105    0.23591    1.000
    N362     N        0.09664    0.13043    0.19836    1.000
    Si363    Si       0.08104    0.16157    0.17185    1.000
    N364     N        0.07687    0.14147    0.13457    1.000
    N365     N        0.10269    0.19772    0.16276    1.000
    Si366    Si       0.06452    0.26068    0.10623    1.000
    N367     N        0.07762    0.07717    0.24361    1.000
    N368     N        0.09018    0.07770    0.32008    1.000
    Si369    Si       0.08287    0.24164    0.38494    1.000
    N370     N        0.05190    0.25767    0.31245    1.000
    N371     N        0.04951    0.03182    0.34822    1.000
    N372     N        0.06336    0.21774    0.25122    1.000
    Si373    Si       0.05495    0.21726    0.32983    1.000
    Si374    Si       0.06988    0.18439    0.28041    1.000
    N375     N        0.09337    0.20442    0.31088    1.000
    N376     N        0.07368    0.14711    0.26237    1.000
    Si377    Si       0.06860    0.25525    0.27262    1.000
    N378     N        0.05130    0.10133    0.43122    1.000
    Si379    Si       0.06372    0.11122    0.39222    1.000
    N380     N        0.06784    0.03921    0.46659    1.000
    N381     N        0.06353    0.12260    0.49255    1.000
    N382     N        0.10485    0.09575    0.38996    1.000
    N383     N        0.04898    0.21587    0.37239    1.000
    Si384    Si       0.06487    0.14263    0.44974    1.000
    N385     N        0.10305    0.16693    0.45519    1.000
    N386     N        0.07147    0.15384    0.40002    1.000
    N387     N        0.08537    0.08402    0.59633    1.000
    N388     N        0.09122    0.06790    0.52853    1.000
    Si389    Si       0.06184    0.07586    0.56056    1.000
    Si390    Si       0.10047    0.04634    0.61344    1.000
    Si391    Si       0.09205    0.12359    0.61394    1.000
    Si392    Si       0.10186    0.10010    0.50172    1.000
    Si393    Si       0.09009    0.02496    0.54252    1.000
    N394     N        0.05300    0.03108    0.56543    1.000
    Si395    Si       0.06228    0.21341    0.53674    1.000
    Si396    Si       0.09475    0.15604    0.54733    1.000
    N397     N        0.05755    0.17287    0.56274    1.000
    N398     N        0.07354    0.24497    0.56601    1.000
    N399     N        0.09885    0.19195    0.52304    1.000
    N400     N        0.05247    0.24107    0.50055    1.000
    Si401    Si       0.05041    0.24467    0.60411    1.000
    Si402    Si       0.09514    0.10640    0.73791    1.000
    N403     N        0.06696    0.02703    0.63311    1.000
    Si404    Si       0.09403    0.03821    0.71584    1.000
    N405     N        0.05483    0.04517    0.69926    1.000
    Si406    Si       0.06793    0.13685    0.67081    1.000
    N407     N        0.05474    0.14324    0.62790    1.000
    Si408    Si       0.08661    0.24858    0.73499    1.000
    N409     N        0.09175    0.20708    0.72800    1.000
    Si410    Si       0.05659    0.18011    0.73035    1.000
    N411     N        0.09246    0.14551    0.71890    1.000
    N412     N        0.04979    0.17618    0.68674    1.000
    N413     N        0.07835    0.04940    0.82431    1.000
    Si414    Si       0.05687    0.07843    0.84840    1.000
    N415     N        0.05232    0.10963    0.81899    1.000
    N416     N        0.10026    0.03424    0.75806    1.000
    Si417    Si       0.08117    0.13227    0.84005    1.000
    N418     N        0.05678    0.09059    0.74888    1.000
    Si419    Si       0.10435    0.06434    0.79033    1.000
    Si420    Si       0.05594    0.01143    0.82095    1.000
    N421     N        0.09032    0.09906    0.86785    1.000
    Si422    Si       0.09113    0.19582    0.84192    1.000
    N423     N        0.06187    0.22368    0.82323    1.000
    N424     N        0.05880    0.16380    0.85860    1.000
    Si425    Si       0.09272    0.25318    0.81423    1.000
    N426     N        0.10413    0.25507    0.77331    1.000
    Si427    Si       0.06602    0.05117    0.95107    1.000
    N428     N        0.10027    0.07459    0.94091    1.000
    Si429    Si       0.06718    0.11158    0.99474    1.000
    N430     N        0.10893    0.13893    0.91673    1.000
    Si431    Si       0.06047    0.18519    0.96858    1.000
    N432     N        0.10198    0.25127    0.90722    1.000
    Si433    Si       0.07625    0.25123    0.94152    1.000
    Si434    Si       0.07617    0.16587    0.89998    1.000
    N435     N        0.08878    0.21810    0.96700    1.000
    N436     N        0.08373    0.14868    0.97649    1.000
    N437     N        0.06493    0.27747    0.06515    1.000
    Si438    Si       0.07132    0.31831    0.04978    1.000
    N439     N        0.09818    0.31533    0.01592    1.000
    N440     N        0.09576    0.34624    0.07377    1.000
    N441     N        0.06537    0.41869    0.12824    1.000
    N442     N        0.07477    0.38870    0.01979    1.000
    Si443    Si       0.09638    0.39037    0.11511    1.000
    N444     N        0.09322    0.47066    0.09041    1.000
    N445     N        0.08656    0.45490    0.02282    1.000
    Si446    Si       0.07807    0.49587    0.01502    1.000
    Si447    Si       0.05843    0.45851    0.11632    1.000
    N448     N        0.08856    0.28913    0.12769    1.000
    N449     N        0.08880    0.35366    0.13720    1.000
    Si450    Si       0.06985    0.27417    0.20359    1.000
    N451     N        0.05484    0.36138    0.23433    1.000
    Si452    Si       0.05319    0.33014    0.14777    1.000
    N453     N        0.05285    0.30719    0.18495    1.000
    Si454    Si       0.05934    0.40115    0.22082    1.000
    N455     N        0.05050    0.48156    0.15053    1.000
    N456     N        0.08953    0.47580    0.20551    1.000
    N457     N        0.09861    0.40273    0.20574    1.000
    N458     N        0.06193    0.29054    0.24625    1.000
    N459     N        0.08037    0.33482    0.29804    1.000
    Si460    Si       0.07858    0.32895    0.25501    1.000
    N461     N        0.10688    0.37023    0.36170    1.000
    N462     N        0.10603    0.50074    0.31293    1.000
    Si463    Si       0.06421    0.48997    0.31906    1.000
    Si464    Si       0.06534    0.41676    0.29722    1.000
    N465     N        0.06155    0.44816    0.32795    1.000
    Si466    Si       0.07509    0.43528    0.36813    1.000
    N467     N        0.05421    0.43003    0.25557    1.000
    Si468    Si       0.06840    0.36051    0.38150    1.000
    N469     N        0.07082    0.36194    0.48551    1.000
    N470     N        0.06750    0.27652    0.40410    1.000
    N471     N        0.06075    0.29760    0.46575    1.000
    N472     N        0.07270    0.34701    0.42124    1.000
    Si473    Si       0.09539    0.37074    0.44947    1.000
    Si474    Si       0.08352    0.26614    0.48254    1.000
    Si475    Si       0.05083    0.30829    0.42544    1.000
    Si476    Si       0.06418    0.48735    0.48701    1.000
    N477     N        0.10373    0.47229    0.49054    1.000
    N478     N        0.07612    0.41376    0.44641    1.000
    N479     N        0.05647    0.45892    0.39875    1.000
    N480     N        0.10446    0.39731    0.30213    1.000
    Si481    Si       0.08515    0.28786    0.54922    1.000
    N482     N        0.10314    0.30708    0.58552    1.000
    N483     N        0.05056    0.30949    0.53370    1.000
    Si484    Si       0.09441    0.38302    0.51537    1.000
    N485     N        0.07263    0.40676    0.54275    1.000
    N486     N        0.08521    0.44051    0.60273    1.000
    N487     N        0.05339    0.50075    0.60563    1.000
    Si488    Si       0.10494    0.41655    0.57251    1.000
    Si489    Si       0.08491    0.30068    0.62570    1.000
    N490     N        0.08789    0.37306    0.65162    1.000
    Si491    Si       0.09402    0.34718    0.68731    1.000
    N492     N        0.06098    0.34517    0.71531    1.000
    N493     N        0.05190    0.27000    0.72295    1.000
    N494     N        0.08420    0.25779    0.62531    1.000
    N495     N        0.08532    0.46475    0.67234    1.000
    Si496    Si       0.04886    0.36304    0.63580    1.000
    N497     N        0.05070    0.42080    0.71083    1.000
    N498     N        0.09097    0.47104    0.74424    1.000
    Si499    Si       0.04542    0.45472    0.68299    1.000
    N500     N        0.08711    0.35257    0.80035    1.000
    N501     N        0.08830    0.29277    0.82783    1.000
    Si502    Si       0.06950    0.30574    0.86388    1.000
    Si503    Si       0.05282    0.44158    0.81694    1.000
    N504     N        0.07821    0.41156    0.83690    1.000
    N505     N        0.08544    0.46927    0.81105    1.000
    Si506    Si       0.10033    0.39432    0.80306    1.000
    Si507    Si       0.10414    0.42192    0.87121    1.000
    N508     N        0.10560    0.40509    0.76123    1.000
    Si509    Si       0.09399    0.36230    0.91227    1.000
    N510     N        0.09520    0.32078    0.89666    1.000
    N511     N        0.09216    0.29050    0.95562    1.000
    Si512    Si       0.08322    0.32752    0.97629    1.000
    N513     N        0.10501    0.35840    0.95414    1.000
    N514     N        0.05380    0.37960    0.91277    1.000
    Si515    Si       0.04714    0.42248    0.92079    1.000
    Si516    Si       0.07934    0.42353    0.99141    1.000
    N517     N        0.08099    0.50350    0.97282    1.000
    N518     N        0.07867    0.44486    0.89804    1.000
    Si519    Si       0.07250    0.43141    0.74714    1.000
    N520     N        0.07335    0.61720    0.10188    1.000
    Si521    Si       0.07741    0.59937    0.06193    1.000
    N522     N        0.10324    0.58508    0.02723    1.000
    Si523    Si       0.07122    0.59979    0.99742    1.000
    N524     N        0.06694    0.63357    0.03589    1.000
    Si525    Si       0.05476    0.73770    0.07843    1.000
    N526     N        0.07516    0.70033    0.07013    1.000
    Si527    Si       0.08212    0.67525    0.03348    1.000
    N528     N        0.08052    0.69128    0.99444    1.000
    N529     N        0.05397    0.54831    0.12393    1.000
    N530     N        0.05982    0.53482    0.19241    1.000
    N531     N        0.08315    0.60036    0.20627    1.000
    Si532    Si       0.08451    0.55705    0.21938    1.000
    Si533    Si       0.07191    0.52220    0.15189    1.000
    N534     N        0.09055    0.65698    0.16092    1.000
    Si535    Si       0.04882    0.70260    0.21150    1.000
    Si536    Si       0.06262    0.63488    0.18695    1.000
    N537     N        0.09208    0.70265    0.21287    1.000
    Si538    Si       0.06388    0.74917    0.15853    1.000
    Si539    Si       0.10391    0.63474    0.12707    1.000
    N540     N        0.10146    0.72811    0.15258    1.000
    N541     N        0.08460    0.61306    0.29288    1.000
    N542     N        0.07820    0.55197    0.26089    1.000
    Si543    Si       0.10429    0.57601    0.28659    1.000
    N544     N        0.09803    0.74694    0.34977    1.000
    N545     N        0.08392    0.68183    0.32338    1.000
    N546     N        0.09744    0.73084    0.27503    1.000
    Si547    Si       0.05744    0.74665    0.27010    1.000
    Si548    Si       0.10741    0.72045    0.31667    1.000
    N549     N        0.06824    0.57861    0.37699    1.000
    Si550    Si       0.08746    0.54930    0.40174    1.000
    N551     N        0.07162    0.53371    0.48218    1.000
    Si552    Si       0.10293    0.56507    0.47386    1.000
    N553     N        0.08377    0.60046    0.49248    1.000
    N554     N        0.05337    0.52832    0.41931    1.000
    Si555    Si       0.05163    0.61976    0.37929    1.000
    N556     N        0.09445    0.74287    0.48917    1.000
    Si557    Si       0.05986    0.67822    0.41487    1.000
    Si558    Si       0.09281    0.74753    0.44470    1.000
    N559     N        0.08669    0.70762    0.43089    1.000
    N560     N        0.08172    0.64720    0.39343    1.000
    Si561    Si       0.10821    0.64693    0.30904    1.000
    Si562    Si       0.06643    0.53498    0.52870    1.000
    Si563    Si       0.09365    0.52133    0.59993    1.000
    N564     N        0.09891    0.53429    0.55678    1.000
    N565     N        0.10518    0.63023    0.54842    1.000
    Si566    Si       0.10632    0.63396    0.50413    1.000
    Si567    Si       0.09048    0.71085    0.60733    1.000
    Si568    Si       0.07550    0.66321    0.55370    1.000
    N569     N        0.07907    0.67393    0.50848    1.000
    N570     N        0.09236    0.70061    0.56324    1.000
    Si571    Si       0.09968    0.71344    0.52052    1.000
    N572     N        0.08114    0.75093    0.60722    1.000
    N573     N        0.08966    0.55658    0.62464    1.000
    Si574    Si       0.09693    0.55043    0.70556    1.000
    N575     N        0.08107    0.62717    0.73253    1.000
    N576     N        0.05583    0.54401    0.68563    1.000
    Si577    Si       0.05366    0.56397    0.64588    1.000
    N578     N        0.09763    0.71291    0.68397    1.000
    Si579    Si       0.05232    0.66132    0.72716    1.000
    Si580    Si       0.05384    0.70384    0.66873    1.000
    N581     N        0.05684    0.69256    0.62729    1.000
    Si582    Si       0.08147    0.59583    0.76380    1.000
    N583     N        0.05994    0.53434    0.81171    1.000
    Si584    Si       0.09287    0.60786    0.83856    1.000
    Si585    Si       0.09246    0.51002    0.82598    1.000
    Si586    Si       0.05401    0.54268    0.77055    1.000
    N587     N        0.04995    0.60756    0.84843    1.000
    Si588    Si       0.08553    0.72480    0.77434    1.000
    Si589    Si       0.08470    0.68339    0.83466    1.000
    N590     N        0.05178    0.74982    0.78205    1.000
    N591     N        0.10563    0.71016    0.80862    1.000
    N592     N        0.06787    0.69301    0.75011    1.000
    N593     N        0.09552    0.51022    0.86788    1.000
    Si594    Si       0.08222    0.55028    0.87963    1.000
    N595     N        0.09400    0.61099    0.96132    1.000
    Si596    Si       0.05407    0.53333    0.95363    1.000
    N597     N        0.08214    0.55052    0.92424    1.000
    N598     N        0.04915    0.56033    0.98795    1.000
    N599     N        0.09781    0.67210    0.93126    1.000
    Si600    Si       0.06797    0.70465    0.91656    1.000
    Si601    Si       0.06609    0.64125    0.94501    1.000
    N602     N        0.06840    0.69828    0.87350    1.000
    N603     N        0.09809    0.73350    0.93342    1.000
    N604     N        0.10813    0.64794    0.84330    1.000
    Si605    Si       0.10709    0.70142    0.96304    1.000
    N606     N        0.08815    0.55749    0.74676    1.000
    N607     N        0.08610    0.83762    0.05773    1.000
    N608     N        0.07411    0.76883    0.05513    1.000
    Si609    Si       0.06281    0.77852    0.01316    1.000
    Si610    Si       0.09983    0.79819    0.07298    1.000
    N611     N        0.10282    0.79194    0.11583    1.000
    N612     N        0.08190    0.91345    0.10148    1.000
    Si613    Si       0.08315    0.92675    0.05905    1.000
    Si614    Si       0.07526    0.99942    0.08280    1.000
    N615     N        0.10177    0.96522    0.07135    1.000
    Si616    Si       0.10523    0.95046    0.11686    1.000
    Si617    Si       0.07781    0.89567    0.14144    1.000
    N618     N        0.09482    0.85712    0.15355    1.000
    Si619    Si       0.07697    0.81866    0.14170    1.000
    N620     N        0.06756    0.78966    0.17420    1.000
    N621     N        0.10078    0.92985    0.15611    1.000
    Si622    Si       0.05881    0.00367    0.22078    1.000
    N623     N        0.07875    0.98545    0.12531    1.000
    Si624    Si       0.05110    0.98911    0.15824    1.000
    N625     N        0.05643    0.78453    0.24816    1.000
    N626     N        0.07870    0.80222    0.30925    1.000
    Si627    Si       0.06616    0.77141    0.33435    1.000
    Si628    Si       0.06031    0.81877    0.27421    1.000
    N629     N        0.08031    0.85492    0.25868    1.000
    N630     N        0.09130    0.94454    0.47605    1.000
    N631     N        0.05336    0.96271    0.34697    1.000
    N632     N        0.07232    0.89240    0.34530    1.000
    N633     N        0.08256    0.92848    0.29487    1.000
    Si634    Si       0.09335    0.96758    0.27341    1.000
    Si635    Si       0.07655    0.99878    0.34172    1.000
    Si636    Si       0.05331    0.92453    0.32386    1.000
    N637     N        0.10372    0.99542    0.30431    1.000
    N638     N        0.05117    0.97384    0.26232    1.000
    Si639    Si       0.06866    0.81114    0.39786    1.000
    N640     N        0.06789    0.78071    0.43196    1.000
    N641     N        0.05136    0.85205    0.40116    1.000
    Si642    Si       0.06255    0.89349    0.38778    1.000
    N643     N        0.09596    0.90832    0.41146    1.000
    Si644    Si       0.09310    0.94727    0.43236    1.000
    N645     N        0.06167    0.97589    0.41916    1.000
    Si646    Si       0.06707    0.85116    0.51127    1.000
    N647     N        0.06290    0.80468    0.58053    1.000
    N648     N        0.07162    0.80657    0.50632    1.000
    Si649    Si       0.06433    0.84938    0.58490    1.000
    N650     N        0.06157    0.87430    0.54860    1.000
    Si651    Si       0.07580    0.76593    0.56665    1.000
    Si652    Si       0.10673    0.78096    0.50649    1.000
    N653     N        0.09010    0.98818    0.52277    1.000
    Si654    Si       0.06637    0.91845    0.55442    1.000
    N655     N        0.06742    0.93048    0.59606    1.000
    Si656    Si       0.06028    0.96520    0.49990    1.000
    Si657    Si       0.06733    0.79015    0.62200    1.000
    Si658    Si       0.08520    0.81827    0.68274    1.000
    N659     N        0.07695    0.77761    0.69545    1.000
    Si660    Si       0.05847    0.87251    0.65283    1.000
    N661     N        0.09454    0.81556    0.64150    1.000
    N662     N        0.05348    0.84795    0.68746    1.000
    Si663    Si       0.08098    0.85455    0.74092    1.000
    N664     N        0.10038    0.88086    0.63970    1.000
    N665     N        0.09551    0.94489    0.65886    1.000
    N666     N        0.09694    0.96253    0.73532    1.000
    N667     N        0.09232    0.89543    0.73151    1.000
    Si668    Si       0.09046    0.97222    0.69283    1.000
    Si669    Si       0.05662    0.94355    0.63595    1.000
    N670     N        0.04775    0.97840    0.69126    1.000
    Si671    Si       0.08161    0.83853    0.81822    1.000
    N672     N        0.08498    0.87747    0.84264    1.000
    N673     N        0.09916    0.84725    0.77991    1.000
    N674     N        0.07943    0.92706    0.97276    1.000
    N675     N        0.07801    0.92998    0.79308    1.000
    Si676    Si       0.05889    0.90734    0.82467    1.000
    N677     N        0.09572    0.99265    0.82771    1.000
    Si678    Si       0.07242    0.92989    0.75029    1.000
    N679     N        0.04956    0.93436    0.85773    1.000
    N680     N        0.06319    0.79814    0.93540    1.000
    Si681    Si       0.06732    0.83593    0.91482    1.000
    N682     N        0.06935    0.86247    0.94939    1.000
    Si683    Si       0.09721    0.77593    0.95108    1.000
    N684     N        0.10225    0.78157    0.99357    1.000
    Si685    Si       0.05932    0.99345    0.92285    1.000
    N686     N        0.09674    0.90931    0.90755    1.000
    N687     N        0.09344    0.97730    0.90289    1.000
    Si688    Si       0.08586    0.94123    0.88170    1.000
    Si689    Si       0.09587    0.89538    0.94708    1.000
    N690     N        0.10713    0.84413    0.90062    1.000
    N691     N        0.07781    0.00847    0.96072    1.000
    Si692    Si       0.12540    0.05019    0.08632    1.000
    Si693    Si       0.11598    0.11612    0.04973    1.000
    N694     N        0.12100    0.09371    0.08741    1.000
    N695     N        0.14267    0.02120    0.05681    1.000
    N696     N        0.15717    0.12935    0.03912    1.000
    Si697    Si       0.16327    0.03504    0.02178    1.000
    N698     N        0.13618    0.19777    0.09076    1.000
    Si699    Si       0.11367    0.21959    0.00187    1.000
    N700     N        0.13707    0.25492    0.00843    1.000
    N701     N        0.13839    0.03393    0.12593    1.000
    Si702    Si       0.11247    0.05337    0.23628    1.000
    N703     N        0.14389    0.11891    0.14925    1.000
    Si704    Si       0.13353    0.10898    0.19112    1.000
    N705     N        0.12693    0.06594    0.19755    1.000
    Si706    Si       0.10642    0.10725    0.12609    1.000
    Si707    Si       0.11334    0.04295    0.16337    1.000
    N708     N        0.15172    0.23368    0.15163    1.000
    Si709    Si       0.12910    0.22591    0.18841    1.000
    N710     N        0.14510    0.20135    0.21788    1.000
    Si711    Si       0.11865    0.21793    0.12580    1.000
    N712     N        0.13985    0.06440    0.26759    1.000
    N713     N        0.14547    0.11532    0.33064    1.000
    Si714    Si       0.13235    0.07779    0.31026    1.000
    N715     N        0.15243    0.04635    0.33441    1.000
    Si716    Si       0.12098    0.23884    0.31235    1.000
    N717     N        0.16332    0.23552    0.30791    1.000
    N718     N        0.11356    0.25273    0.35213    1.000
    Si719    Si       0.14168    0.11733    0.37359    1.000
    N720     N        0.12638    0.03614    0.42545    1.000
    Si721    Si       0.13071    0.07776    0.42241    1.000
    N722     N        0.11905    0.08594    0.46242    1.000
    Si723    Si       0.11403    0.04239    0.46744    1.000
    N724     N        0.14484    0.02700    0.49223    1.000
    Si725    Si       0.12185    0.19239    0.48570    1.000
    Si726    Si       0.11002    0.17152    0.41284    1.000
    Si727    Si       0.13706    0.23347    0.43229    1.000
    N728     N        0.11811    0.23684    0.47174    1.000
    N729     N        0.16263    0.17629    0.49342    1.000
    N730     N        0.14293    0.15699    0.38998    1.000
    N731     N        0.16515    0.08391    0.39437    1.000
    N732     N        0.10747    0.21435    0.40755    1.000
    N733     N        0.11481    0.02510    0.57829    1.000
    N734     N        0.12300    0.13020    0.52341    1.000
    Si735    Si       0.15044    0.16741    0.59778    1.000
    N736     N        0.11556    0.14589    0.58579    1.000
    Si737    Si       0.16194    0.15068    0.52791    1.000
    Si738    Si       0.12553    0.24095    0.61543    1.000
    N739     N        0.16246    0.24054    0.52748    1.000
    N740     N        0.14772    0.18051    0.68935    1.000
    Si741    Si       0.13080    0.08924    0.67256    1.000
    N742     N        0.13514    0.06190    0.63820    1.000
    N743     N        0.10952    0.12514    0.65698    1.000
    N744     N        0.11032    0.07838    0.70841    1.000
    Si745    Si       0.14940    0.14506    0.66335    1.000
    N746     N        0.14537    0.25539    0.65347    1.000
    Si747    Si       0.15635    0.21151    0.66128    1.000
    Si748    Si       0.12273    0.17587    0.72353    1.000
    N749     N        0.13430    0.19837    0.62379    1.000
    N750     N        0.16684    0.11147    0.68614    1.000
    Si751    Si       0.14489    0.26115    0.49522    1.000
    N752     N        0.11410    0.00863    0.69018    1.000
    N753     N        0.13880    0.05585    0.81634    1.000
    Si754    Si       0.11539    0.02983    0.84243    1.000
    N755     N        0.11319    0.10536    0.77631    1.000
    Si756    Si       0.13287    0.14033    0.79194    1.000
    N757     N        0.14484    0.16891    0.76053    1.000
    N758     N        0.12166    0.23053    0.83670    1.000
    N759     N        0.10832    0.16042    0.82083    1.000
    N760     N        0.12985    0.02896    0.88176    1.000
    N761     N        0.14806    0.11358    0.96998    1.000
    Si762    Si       0.12311    0.07994    0.98106    1.000
    Si763    Si       0.11664    0.09668    0.90553    1.000
    N764     N        0.16193    0.09101    0.90571    1.000
    N765     N        0.13190    0.03956    0.99154    1.000
    N766     N        0.13963    0.18269    0.99168    1.000
    N767     N        0.16001    0.23901    0.95161    1.000
    Si768    Si       0.12323    0.14951    0.95807    1.000
    Si769    Si       0.14550    0.17196    0.89431    1.000
    Si770    Si       0.13043    0.23406    0.87934    1.000
    N771     N        0.10848    0.19094    0.88240    1.000
    N772     N        0.16128    0.16430    0.93484    1.000
    N773     N        0.16804    0.21372    0.89282    1.000
    N774     N        0.14399    0.37229    0.01954    1.000
    Si775    Si       0.13456    0.29365    0.02906    1.000
    N776     N        0.13999    0.29744    0.07197    1.000
    Si777    Si       0.10970    0.32484    0.11077    1.000
    Si778    Si       0.10943    0.37645    0.04351    1.000
    N779     N        0.15290    0.45466    0.05856    1.000
    Si780    Si       0.15081    0.42244    0.10105    1.000
    Si781    Si       0.12782    0.49234    0.10860    1.000
    Si782    Si       0.15366    0.49487    0.03900    1.000
    N783     N        0.11427    0.40678    0.07457    1.000
    Si784    Si       0.10963    0.44597    0.05701    1.000
    N785     N        0.15040    0.32977    0.12293    1.000
    Si786    Si       0.12778    0.28111    0.24058    1.000
    N787     N        0.15397    0.36186    0.18723    1.000
    Si788    Si       0.15290    0.35286    0.23021    1.000
    N789     N        0.11938    0.32386    0.24047    1.000
    N790     N        0.11079    0.26023    0.20499    1.000
    N791     N        0.14985    0.43716    0.19322    1.000
    N792     N        0.15519    0.45982    0.12252    1.000
    Si793    Si       0.11508    0.44414    0.21795    1.000
    Si794    Si       0.13312    0.39848    0.17724    1.000
    N795     N        0.13306    0.40135    0.13547    1.000
    N796     N        0.14695    0.33759    0.31728    1.000
    Si797    Si       0.11046    0.35802    0.31929    1.000
    N798     N        0.11168    0.26014    0.27597    1.000
    Si799    Si       0.13920    0.41628    0.28301    1.000
    Si800    Si       0.13592    0.48015    0.28888    1.000
    N801     N        0.12171    0.45153    0.26138    1.000
    N802     N        0.16084    0.44648    0.30754    1.000
    N803     N        0.15199    0.38983    0.25340    1.000
    Si804    Si       0.11226    0.43578    0.46155    1.000
    N805     N        0.12336    0.40630    0.49209    1.000
    Si806    Si       0.15223    0.25875    0.37121    1.000
    N807     N        0.13142    0.34021    0.46536    1.000
    N808     N        0.14623    0.27062    0.41209    1.000
    Si809    Si       0.16154    0.36366    0.44430    1.000
    N810     N        0.13012    0.38507    0.42364    1.000
    N811     N        0.11601    0.44211    0.37659    1.000
    Si812    Si       0.12886    0.47938    0.39728    1.000
    Si813    Si       0.13471    0.40114    0.38147    1.000
    N814     N        0.13720    0.46107    0.43622    1.000
    Si815    Si       0.12636    0.34265    0.57555    1.000
    N816     N        0.11845    0.35270    0.53397    1.000
    Si817    Si       0.13395    0.32575    0.50529    1.000
    N818     N        0.11209    0.28713    0.50961    1.000
    Si819    Si       0.10607    0.45676    0.63493    1.000
    N820     N        0.12007    0.38167    0.59231    1.000
    N821     N        0.13162    0.44269    0.55311    1.000
    Si822    Si       0.13745    0.47011    0.52120    1.000
    Si823    Si       0.16477    0.40977    0.50523    1.000
    N824     N        0.12953    0.36558    0.70495    1.000
    Si825    Si       0.13646    0.28806    0.67916    1.000
    N826     N        0.12075    0.27117    0.71654    1.000
    N827     N        0.16281    0.36100    0.64748    1.000
    N828     N        0.13859    0.42738    0.64237    1.000
    Si829    Si       0.16524    0.44169    0.67418    1.000
    Si830    Si       0.11364    0.47411    0.70715    1.000
    N831     N        0.11995    0.49683    0.62521    1.000
    Si832    Si       0.12719    0.38626    0.63486    1.000
    Si833    Si       0.13410    0.40027    0.72996    1.000
    N834     N        0.13744    0.43803    0.70730    1.000
    N835     N        0.10630    0.31146    0.66298    1.000
    N836     N        0.16096    0.50625    0.53238    1.000
    N837     N        0.14226    0.31049    0.77947    1.000
    N838     N        0.14038    0.33299    0.84579    1.000
    Si839    Si       0.11516    0.32308    0.81234    1.000
    Si840    Si       0.14047    0.27290    0.75568    1.000
    Si841    Si       0.14960    0.37428    0.85790    1.000
    N842     N        0.13844    0.39665    0.82064    1.000
    N843     N        0.15370    0.45449    0.77656    1.000
    Si844    Si       0.11605    0.47694    0.78007    1.000
    N845     N        0.13516    0.45214    0.86874    1.000
    Si846    Si       0.16446    0.41437    0.78896    1.000
    Si847    Si       0.12096    0.29098    0.92066    1.000
    Si848    Si       0.13581    0.38079    0.97584    1.000
    N849     N        0.15460    0.27486    0.88686    1.000
    N850     N        0.15538    0.30142    0.94952    1.000
    Si851    Si       0.16700    0.27074    0.98104    1.000
    N852     N        0.12070    0.38604    0.88873    1.000
    Si853    Si       0.12396    0.50660    0.96995    1.000
    Si854    Si       0.15250    0.45053    0.96005    1.000
    N855     N        0.12135    0.42276    0.97473    1.000
    N856     N        0.12782    0.48035    0.93507    1.000
    N857     N        0.15739    0.48375    0.99165    1.000
    Si858    Si       0.10769    0.47858    0.89592    1.000
    Si859    Si       0.13173    0.55592    0.01497    1.000
    N860     N        0.15299    0.51580    0.08205    1.000
    N861     N        0.11669    0.51537    0.02637    1.000
    N862     N        0.13349    0.66110    0.10703    1.000
    N863     N        0.13514    0.73483    0.09111    1.000
    N864     N        0.12625    0.67761    0.04250    1.000
    Si865    Si       0.11866    0.69466    0.08275    1.000
    Si866    Si       0.15829    0.69180    0.01736    1.000
    Si867    Si       0.16407    0.75454    0.06591    1.000
    Si868    Si       0.15214    0.54727    0.23819    1.000
    N869     N        0.12609    0.55250    0.20246    1.000
    N870     N        0.12473    0.60214    0.14719    1.000
    Si871    Si       0.12410    0.59602    0.19189    1.000
    Si872    Si       0.14402    0.52964    0.16789    1.000
    N873     N        0.15158    0.62421    0.20976    1.000
    N874     N        0.11483    0.51489    0.14196    1.000
    Si875    Si       0.16457    0.59569    0.13443    1.000
    Si876    Si       0.12242    0.72102    0.24096    1.000
    N877     N        0.15289    0.68782    0.17562    1.000
    Si878    Si       0.10950    0.69113    0.17662    1.000
    N879     N        0.16512    0.70295    0.24575    1.000
    Si880    Si       0.15174    0.59422    0.34223    1.000
    Si881    Si       0.12733    0.52614    0.34081    1.000
    N882     N        0.13829    0.58112    0.26051    1.000
    N883     N        0.12435    0.56611    0.32317    1.000
    Si884    Si       0.15633    0.61951    0.25204    1.000
    N885     N        0.12983    0.63177    0.34451    1.000
    N886     N        0.15445    0.51228    0.26460    1.000
    N887     N        0.14083    0.64880    0.28068    1.000
    N888     N        0.15022    0.70807    0.31661    1.000
    Si889    Si       0.16489    0.71566    0.35732    1.000
    Si890    Si       0.16663    0.68360    0.28551    1.000
    Si891    Si       0.12881    0.70445    0.42232    1.000
    N892     N        0.11276    0.56696    0.43265    1.000
    N893     N        0.11248    0.51835    0.38155    1.000
    N894     N        0.14635    0.62476    0.48847    1.000
    Si895    Si       0.14855    0.58599    0.41730    1.000
    N896     N        0.14363    0.62791    0.41745    1.000
    N897     N        0.13970    0.68894    0.38285    1.000
    N898     N        0.16625    0.57673    0.37883    1.000
    Si899    Si       0.12478    0.64893    0.38386    1.000
    N900     N        0.13062    0.74832    0.41918    1.000
    Si901    Si       0.16385    0.64436    0.45321    1.000
    N902     N        0.15032    0.68630    0.45293    1.000
    N903     N        0.16778    0.51185    0.33124    1.000
    N904     N        0.15286    0.58084    0.56110    1.000
    Si905    Si       0.13875    0.54442    0.54137    1.000
    Si906    Si       0.13630    0.61827    0.57554    1.000
    N907     N        0.12711    0.61224    0.61607    1.000
    N908     N        0.13499    0.55940    0.50050    1.000
    Si909    Si       0.10604    0.74908    0.70731    1.000
    N910     N        0.14347    0.71067    0.52021    1.000
    Si911    Si       0.15211    0.74247    0.54858    1.000
    N912     N        0.16450    0.65389    0.57078    1.000
    Si913    Si       0.16188    0.68577    0.59979    1.000
    Si914    Si       0.12255    0.57877    0.64241    1.000
    Si915    Si       0.14259    0.51408    0.65843    1.000
    N916     N        0.14966    0.61260    0.73675    1.000
    N917     N        0.15554    0.55100    0.64329    1.000
    N918     N        0.12190    0.51577    0.69749    1.000
    Si919    Si       0.11587    0.61911    0.70651    1.000
    N920     N        0.11137    0.58473    0.68381    1.000
    N921     N        0.12561    0.69163    0.62640    1.000
    Si922    Si       0.13438    0.69091    0.66942    1.000
    N923     N        0.13817    0.65233    0.68896    1.000
    Si924    Si       0.14943    0.60109    0.77883    1.000
    N925     N        0.12864    0.51448    0.79887    1.000
    N926     N        0.11352    0.57870    0.86611    1.000
    N927     N        0.10807    0.59897    0.79696    1.000
    Si928    Si       0.13864    0.72669    0.83053    1.000
    Si929    Si       0.15184    0.65417    0.83748    1.000
    N930     N        0.16242    0.69569    0.84548    1.000
    N931     N        0.12776    0.75203    0.86390    1.000
    N932     N        0.11403    0.74552    0.75059    1.000
    N933     N        0.14641    0.70301    0.97591    1.000
    Si934    Si       0.11221    0.57649    0.94152    1.000
    N935     N        0.13507    0.55030    0.97126    1.000
    Si936    Si       0.15456    0.59022    0.88074    1.000
    N937     N        0.14939    0.58765    0.92298    1.000
    Si938    Si       0.13173    0.74709    0.90673    1.000
    N939     N        0.14220    0.79302    0.05844    1.000
    N940     N        0.14890    0.86367    0.07451    1.000
    Si941    Si       0.11906    0.86425    0.04196    1.000
    Si942    Si       0.13815    0.79876    0.01265    1.000
    N943     N        0.13451    0.84113    0.01028    1.000
    Si944    Si       0.11911    0.92713    0.99651    1.000
    Si945    Si       0.13465    0.97836    0.04739    1.000
    N946     N        0.12109    0.97088    0.00820    1.000
    N947     N        0.11105    0.90581    0.03349    1.000
    N948     N        0.14876    0.82180    0.18230    1.000
    Si949    Si       0.13144    0.86210    0.17700    1.000
    Si950    Si       0.15101    0.79674    0.21733    1.000
    N951     N        0.16213    0.76188    0.14893    1.000
    N952     N        0.13112    0.75936    0.21999    1.000
    N953     N        0.13326    0.88282    0.21632    1.000
    N954     N        0.15403    0.88760    0.14955    1.000
    Si955    Si       0.13211    0.98458    0.21757    1.000
    Si956    Si       0.14305    0.93030    0.16057    1.000
    N957     N        0.11865    0.94985    0.24261    1.000
    N958     N        0.16019    0.94659    0.19590    1.000
    Si959    Si       0.14814    0.92084    0.23248    1.000
    Si960    Si       0.15507    0.99842    0.14322    1.000
    N961     N        0.12917    0.00201    0.17832    1.000
    N962     N        0.14966    0.95853    0.12281    1.000
    Si963    Si       0.12476    0.75581    0.12813    1.000
    Si964    Si       0.12384    0.85946    0.25366    1.000
    N965     N        0.14640    0.82211    0.25355    1.000
    N966     N        0.13701    0.88046    0.28927    1.000
    N967     N        0.16415    0.75993    0.36392    1.000
    N968     N        0.13137    0.92409    0.34226    1.000
    N969     N        0.11094    0.99828    0.36697    1.000
    Si970    Si       0.13699    0.00645    0.33192    1.000
    Si971    Si       0.10855    0.89974    0.31745    1.000
    Si972    Si       0.12318    0.76714    0.37909    1.000
    Si973    Si       0.14322    0.82953    0.40607    1.000
    N974     N        0.12915    0.85172    0.44032    1.000
    Si975    Si       0.13929    0.84380    0.48218    1.000
    N976     N        0.15346    0.86609    0.38384    1.000
    N977     N        0.11118    0.80805    0.38772    1.000
    N978     N        0.13999    0.80083    0.48942    1.000
    Si979    Si       0.13399    0.88920    0.41777    1.000
    Si980    Si       0.13407    0.00290    0.40140    1.000
    Si981    Si       0.16333    0.95075    0.44971    1.000
    N982     N        0.13217    0.96568    0.42376    1.000
    N983     N        0.15734    0.95430    0.49202    1.000
    N984     N        0.16444    0.90782    0.44260    1.000
    Si985    Si       0.11978    0.87682    0.54635    1.000
    N986     N        0.11482    0.76386    0.54649    1.000
    N987     N        0.10943    0.86116    0.50662    1.000
    N988     N        0.11022    0.85150    0.58138    1.000
    Si989    Si       0.12186    0.95741    0.51705    1.000
    N990     N        0.14633    0.93226    0.61246    1.000
    N991     N        0.15393    0.96613    0.55187    1.000
    Si992    Si       0.14750    0.92875    0.57027    1.000
    N993     N        0.16263    0.89013    0.55659    1.000
    N994     N        0.11050    0.92252    0.54487    1.000
    Si995    Si       0.15407    0.00486    0.57016    1.000
    Si996    Si       0.11982    0.84650    0.62328    1.000
    Si997    Si       0.14732    0.81185    0.71494    1.000
    N998     N        0.14451    0.77123    0.70055    1.000
    N999     N        0.16115    0.84317    0.63491    1.000
    N1000    N        0.10880    0.83371    0.71396    1.000
    N1001    N        0.15693    0.86892    0.74562    1.000
    N1002    N        0.15591    0.93092    0.72989    1.000
    Si1003   Si       0.15551    0.00038    0.68700    1.000
    Si1004   Si       0.13439    0.89510    0.71801    1.000
    Si1005   Si       0.12537    0.91660    0.64737    1.000
    N1006    N        0.15365    0.89719    0.67457    1.000
    Si1007   Si       0.14152    0.84217    0.77723    1.000
    Si1008   Si       0.14212    0.79096    0.84405    1.000
    N1009    N        0.15208    0.80348    0.75830    1.000
    N1010    N        0.16185    0.76135    0.81234    1.000
    Si1011   Si       0.15148    0.76055    0.76777    1.000
    Si1012   Si       0.10768    0.95454    0.81235    1.000
    Si1013   Si       0.15688    0.92904    0.86443    1.000
    N1014    N        0.11656    0.93129    0.84883    1.000
    N1015    N        0.14394    0.96259    0.78913    1.000
    Si1016   Si       0.14006    0.96665    0.74672    1.000
    N1017    N        0.15553    0.88964    0.88426    1.000
    Si1018   Si       0.14528    0.82510    0.91103    1.000
    N1019    N        0.13213    0.78602    0.92781    1.000
    Si1020   Si       0.15878    0.86019    0.97637    1.000
    Si1021   Si       0.13338    0.99210    0.90565    1.000
    Si1022   Si       0.11682    0.00060    0.97642    1.000
    Si1023   Si       0.11400    0.88079    0.87778    1.000
    N1024    N        0.15957    0.96571    0.88503    1.000
    N1025    N        0.13431    0.89649    0.96932    1.000
    N1026    N        0.14614    0.99186    0.94597    1.000
    N1027    N        0.10393    0.80682    0.83323    1.000
    Si1028   Si       0.19258    0.10457    0.04083    1.000
    N1029    N        0.19188    0.06787    0.01857    1.000
    N1030    N        0.21740    0.10002    0.07501    1.000
    N1031    N        0.21464    0.13800    0.01941    1.000
    Si1032   Si       0.17603    0.16144    0.01349    1.000
    N1033    N        0.18502    0.19561    0.04130    1.000
    N1034    N        0.20291    0.21936    0.10588    1.000
    Si1035   Si       0.17709    0.19259    0.08384    1.000
    N1036    N        0.18711    0.15444    0.10292    1.000
    Si1037   Si       0.21325    0.21816    0.01817    1.000
    N1038    N        0.21938    0.25553    0.05105    1.000
    Si1039   Si       0.22599    0.25625    0.09338    1.000
    Si1040   Si       0.20479    0.12243    0.23754    1.000
    N1041    N        0.19738    0.06913    0.22343    1.000
    N1042    N        0.22218    0.12430    0.14433    1.000
    N1043    N        0.16802    0.12818    0.21115    1.000
    Si1044   Si       0.17459    0.17228    0.20886    1.000
    Si1045   Si       0.18081    0.14271    0.14704    1.000
    Si1046   Si       0.19336    0.21993    0.14855    1.000
    N1047    N        0.18679    0.17991    0.16629    1.000
    N1048    N        0.21089    0.16806    0.23488    1.000
    N1049    N        0.20428    0.03183    0.28059    1.000
    N1050    N        0.19131    0.10659    0.27682    1.000
    Si1051   Si       0.18215    0.06501    0.26325    1.000
    N1052    N        0.21614    0.11550    0.33903    1.000
    Si1053   Si       0.18523    0.13145    0.31166    1.000
    N1054    N        0.22402    0.05347    0.36607    1.000
    Si1055   Si       0.19158    0.21423    0.33080    1.000
    N1056    N        0.19576    0.17291    0.32332    1.000
    N1057    N        0.21688    0.23498    0.26779    1.000
    Si1058   Si       0.22326    0.15451    0.35258    1.000
    N1059    N        0.18105    0.22463    0.37301    1.000
    Si1060   Si       0.18015    0.04978    0.37083    1.000
    N1061    N        0.20805    0.06749    0.49247    1.000
    N1062    N        0.17427    0.00919    0.38475    1.000
    N1063    N        0.22736    0.16731    0.45327    1.000
    N1064    N        0.21178    0.17020    0.38964    1.000
    N1065    N        0.16821    0.20501    0.43596    1.000
    Si1066   Si       0.19485    0.19360    0.46822    1.000
    N1067    N        0.21909    0.22883    0.47498    1.000
    Si1068   Si       0.17348    0.18848    0.39595    1.000
    N1069    N        0.17953    0.03211    0.55013    1.000
    N1070    N        0.20467    0.06031    0.60935    1.000
    Si1071   Si       0.21621    0.04433    0.57017    1.000
    Si1072   Si       0.18583    0.03196    0.50518    1.000
    Si1073   Si       0.22417    0.09937    0.51728    1.000
    N1074    N        0.20087    0.13248    0.53166    1.000
    Si1075   Si       0.21569    0.16876    0.55355    1.000
    Si1076   Si       0.18073    0.22307    0.56096    1.000
    N1077    N        0.22107    0.21184    0.54575    1.000
    N1078    N        0.17356    0.17886    0.56358    1.000
    Si1079   Si       0.20368    0.11741    0.70998    1.000
    N1080    N        0.18497    0.02903    0.67304    1.000
    Si1081   Si       0.17226    0.03998    0.63156    1.000
    N1082    N        0.21793    0.07606    0.71850    1.000
    Si1083   Si       0.22186    0.04202    0.69145    1.000
    N1084    N        0.19747    0.22227    0.65182    1.000
    N1085    N        0.16418    0.24928    0.59471    1.000
    Si1086   Si       0.22105    0.14561    0.64066    1.000
    N1087    N        0.17567    0.15012    0.62941    1.000
    N1088    N        0.21140    0.20330    0.74241    1.000
    N1089    N        0.22267    0.14888    0.68457    1.000
    N1090    N        0.20448    0.05572    0.78491    1.000
    N1091    N        0.20408    0.07036    0.84360    1.000
    Si1092   Si       0.17688    0.07865    0.80900    1.000
    Si1093   Si       0.21550    0.03435    0.82196    1.000
    N1094    N        0.16876    0.12116    0.81003    1.000
    Si1095   Si       0.19474    0.14757    0.83185    1.000
    Si1096   Si       0.18900    0.17387    0.76362    1.000
    N1097    N        0.19604    0.18359    0.80678    1.000
    N1098    N        0.17993    0.15454    0.87257    1.000
    Si1099   Si       0.22275    0.24487    0.75470    1.000
    N1100    N        0.21651    0.05398    0.95446    1.000
    Si1101   Si       0.18963    0.06721    0.88442    1.000
    Si1102   Si       0.17469    0.12147    0.93556    1.000
    N1103    N        0.20099    0.02497    0.89257    1.000
    N1104    N        0.21578    0.12554    0.95059    1.000
    Si1105   Si       0.21806    0.04340    0.99466    1.000
    Si1106   Si       0.16628    0.19901    0.96044    1.000
    Si1107   Si       0.20362    0.18852    0.88601    1.000
    N1108    N        0.20254    0.19175    0.98210    1.000
    N1109    N        0.21131    0.25892    0.98747    1.000
    Si1110   Si       0.17894    0.25148    0.91385    1.000
    Si1111   Si       0.22828    0.21012    0.81614    1.000
    N1112    N        0.20911    0.14036    0.74402    1.000
    N1113    N        0.19444    0.34514    0.06902    1.000
    Si1114   Si       0.18224    0.35089    0.02659    1.000
    N1115    N        0.17627    0.30790    0.01544    1.000
    Si1116   Si       0.17532    0.31283    0.09126    1.000
    Si1117   Si       0.21557    0.28631    0.02024    1.000
    Si1118   Si       0.21387    0.37580    0.09642    1.000
    N1119    N        0.20570    0.28967    0.11209    1.000
    N1120    N        0.21550    0.36608    0.00438    1.000
    N1121    N        0.20028    0.49200    0.04016    1.000
    Si1122   Si       0.20073    0.45081    0.06743    1.000
    N1123    N        0.19095    0.41146    0.08997    1.000
    N1124    N        0.19442    0.34161    0.23639    1.000
    N1125    N        0.21142    0.35994    0.13623    1.000
    N1126    N        0.19220    0.30455    0.17696    1.000
    Si1127   Si       0.20020    0.30198    0.22100    1.000
    Si1128   Si       0.17686    0.34017    0.15651    1.000
    N1129    N        0.17061    0.27726    0.24136    1.000
    Si1130   Si       0.22237    0.37428    0.23568    1.000
    Si1131   Si       0.22428    0.28739    0.15170    1.000
    N1132    N        0.17258    0.49891    0.18065    1.000
    N1133    N        0.21531    0.41983    0.23459    1.000
    N1134    N        0.21169    0.44949    0.16958    1.000
    Si1135   Si       0.21591    0.49065    0.18820    1.000
    Si1136   Si       0.17122    0.45947    0.16290    1.000
    Si1137   Si       0.20097    0.46882    0.99996    1.000
    Si1138   Si       0.18186    0.31805    0.32803    1.000
    N1139    N        0.21057    0.34668    0.34884    1.000
    N1140    N        0.20344    0.29245    0.30038    1.000
    N1141    N        0.18005    0.29111    0.36159    1.000
    Si1142   Si       0.18405    0.25870    0.27808    1.000
    Si1143   Si       0.21227    0.38751    0.35287    1.000
    N1144    N        0.21556    0.46592    0.35748    1.000
    Si1145   Si       0.20222    0.44916    0.31982    1.000
    N1146    N        0.21607    0.47867    0.28813    1.000
    N1147    N        0.22130    0.40982    0.31626    1.000
    Si1148   Si       0.19474    0.50579    0.36514    1.000
    N1149    N        0.17386    0.39816    0.36688    1.000
    Si1150   Si       0.21393    0.31444    0.38222    1.000
    N1151    N        0.18827    0.33511    0.42366    1.000
    N1152    N        0.21411    0.27706    0.41640    1.000
    Si1153   Si       0.17865    0.29320    0.42983    1.000
    N1154    N        0.17399    0.28287    0.47230    1.000
    N1155    N        0.17364    0.49652    0.40151    1.000
    Si1156   Si       0.18041    0.47632    0.43948    1.000
    N1157    N        0.21031    0.44689    0.43076    1.000
    Si1158   Si       0.21910    0.41416    0.45933    1.000
    N1159    N        0.18394    0.39121    0.46967    1.000
    N1160    N        0.19512    0.50825    0.46956    1.000
    Si1161   Si       0.20482    0.29954    0.49775    1.000
    Si1162   Si       0.19370    0.35063    0.54880    1.000
    N1163    N        0.17702    0.32408    0.52032    1.000
    N1164    N        0.16987    0.33854    0.58423    1.000
    Si1165   Si       0.19356    0.34018    0.62158    1.000
    N1166    N        0.17472    0.48634    0.67072    1.000
    N1167    N        0.18894    0.39393    0.53830    1.000
    N1168    N        0.21199    0.46483    0.55245    1.000
    Si1169   Si       0.19822    0.48791    0.51464    1.000
    Si1170   Si       0.22042    0.49913    0.57766    1.000
    Si1171   Si       0.22096    0.42376    0.54156    1.000
    Si1172   Si       0.18509    0.25946    0.63225    1.000
    N1173    N        0.17324    0.30755    0.69484    1.000
    N1174    N        0.20594    0.29852    0.62927    1.000
    Si1175   Si       0.20383    0.29696    0.72409    1.000
    N1176    N        0.20306    0.37062    0.69998    1.000
    Si1177   Si       0.20595    0.37058    0.74284    1.000
    Si1178   Si       0.16777    0.35009    0.68928    1.000
    Si1179   Si       0.21519    0.47353    0.66032    1.000
    N1180    N        0.20529    0.43011    0.66603    1.000
    N1181    N        0.17299    0.45168    0.50226    1.000
    N1182    N        0.19809    0.30187    0.82695    1.000
    Si1183   Si       0.18402    0.30444    0.78547    1.000
    Si1184   Si       0.17172    0.30790    0.86266    1.000
    N1185    N        0.18370    0.27011    0.75474    1.000
    N1186    N        0.20912    0.32777    0.75580    1.000
    N1187    N        0.19309    0.38418    0.85787    1.000
    N1188    N        0.20399    0.42725    0.80223    1.000
    Si1189   Si       0.19718    0.46962    0.77772    1.000
    N1190    N        0.19725    0.49870    0.81318    1.000
    N1191    N        0.20872    0.45343    0.86435    1.000
    Si1192   Si       0.21461    0.41762    0.84333    1.000
    N1193    N        0.16946    0.38878    0.75486    1.000
    N1194    N        0.22544    0.38283    0.91976    1.000
    Si1195   Si       0.22607    0.48961    0.84517    1.000
    Si1196   Si       0.18712    0.33114    0.93934    1.000
    N1197    N        0.18852    0.33079    0.89632    1.000
    Si1198   Si       0.21724    0.36000    0.88501    1.000
    N1199    N        0.17183    0.37177    0.95420    1.000
    N1200    N        0.22549    0.31540    0.95346    1.000
    N1201    N        0.22023    0.26116    0.91761    1.000
    N1202    N        0.17110    0.50548    0.88667    1.000
    Si1203   Si       0.17252    0.46086    0.88698    1.000
    N1204    N        0.19283    0.42979    0.98193    1.000
    Si1205   Si       0.19609    0.40558    0.94364    1.000
    N1206    N        0.17420    0.43684    0.92381    1.000
    Si1207   Si       0.20854    0.60965    0.08053    1.000
    Si1208   Si       0.20450    0.57736    0.01425    1.000
    Si1209   Si       0.18046    0.54774    0.07615    1.000
    N1210    N        0.17448    0.58744    0.09304    1.000
    N1211    N        0.17101    0.55841    0.03322    1.000
    N1212    N        0.21958    0.60898    0.03944    1.000
    N1213    N        0.22308    0.54296    0.08389    1.000
    Si1214   Si       0.17696    0.66480    0.11229    1.000
    N1215    N        0.19075    0.66472    0.00764    1.000
    N1216    N        0.19918    0.65190    0.07715    1.000
    Si1217   Si       0.21900    0.65403    0.03843    1.000
    N1218    N        0.17449    0.73004    0.03226    1.000
    Si1219   Si       0.20108    0.75083    0.00366    1.000
    N1220    N        0.20718    0.72810    0.19123    1.000
    N1221    N        0.17239    0.56039    0.15600    1.000
    Si1222   Si       0.20732    0.55878    0.18016    1.000
    N1223    N        0.19071    0.55200    0.22059    1.000
    Si1224   Si       0.17501    0.65145    0.18197    1.000
    N1225    N        0.21239    0.66069    0.20086    1.000
    Si1226   Si       0.20324    0.69839    0.22395    1.000
    N1227    N        0.19298    0.70298    0.12532    1.000
    N1228    N        0.18552    0.63479    0.14368    1.000
    Si1229   Si       0.17685    0.72211    0.16108    1.000
    N1230    N        0.20337    0.75727    0.08551    1.000
    N1231    N        0.19659    0.60627    0.33343    1.000
    N1232    N        0.19693    0.60933    0.26341    1.000
    Si1233   Si       0.21380    0.62683    0.29775    1.000
    N1234    N        0.21417    0.54397    0.28741    1.000
    Si1235   Si       0.21404    0.57047    0.25277    1.000
    Si1236   Si       0.18700    0.51073    0.29172    1.000
    Si1237   Si       0.17119    0.70532    0.48828    1.000
    N1238    N        0.22286    0.54056    0.35627    1.000
    N1239    N        0.20804    0.71141    0.35874    1.000
    N1240    N        0.20441    0.66873    0.30089    1.000
    N1241    N        0.20779    0.63977    0.44858    1.000
    Si1242   Si       0.20788    0.58116    0.36714    1.000
    Si1243   Si       0.21819    0.59941    0.43681    1.000
    N1244    N        0.17888    0.58191    0.44817    1.000
    Si1245   Si       0.21958    0.54162    0.48315    1.000
    N1246    N        0.17656    0.74489    0.46913    1.000
    N1247    N        0.21611    0.74691    0.41733    1.000
    Si1248   Si       0.16684    0.58687    0.49033    1.000
    N1249    N        0.20309    0.53866    0.58308    1.000
    Si1250   Si       0.19579    0.58149    0.56968    1.000
    N1251    N        0.21293    0.61788    0.55041    1.000
    N1252    N        0.19842    0.59434    0.61241    1.000
    N1253    N        0.20345    0.57366    0.51017    1.000
    Si1254   Si       0.19908    0.66135    0.54532    1.000
    N1255    N        0.20024    0.67710    0.50327    1.000
    Si1256   Si       0.21697    0.72503    0.58642    1.000
    N1257    N        0.17203    0.72410    0.58210    1.000
    N1258    N        0.22574    0.72389    0.62804    1.000
    Si1259   Si       0.19595    0.55286    0.62424    1.000
    N1260    N        0.19921    0.61719    0.67905    1.000
    Si1261   Si       0.19983    0.51800    0.71238    1.000
    N1262    N        0.21511    0.55901    0.72117    1.000
    Si1263   Si       0.20751    0.62963    0.63590    1.000
    N1264    N        0.17141    0.71157    0.67853    1.000
    N1265    N        0.19535    0.66332    0.73824    1.000
    Si1266   Si       0.17636    0.74140    0.70661    1.000
    Si1267   Si       0.20935    0.69700    0.65724    1.000
    N1268    N        0.18696    0.66893    0.63257    1.000
    Si1269   Si       0.17541    0.63642    0.70863    1.000
    Si1270   Si       0.21377    0.57106    0.76182    1.000
    N1271    N        0.17512    0.56590    0.78158    1.000
    Si1272   Si       0.16973    0.52286    0.78758    1.000
    N1273    N        0.16577    0.63579    0.79989    1.000
    Si1274   Si       0.20316    0.64645    0.77837    1.000
    Si1275   Si       0.21182    0.70710    0.76092    1.000
    N1276    N        0.21031    0.74713    0.86161    1.000
    N1277    N        0.17902    0.73412    0.74967    1.000
    N1278    N        0.19391    0.57087    0.87128    1.000
    Si1279   Si       0.17282    0.56955    0.95390    1.000
    N1280    N        0.20193    0.54161    0.93867    1.000
    Si1281   Si       0.20151    0.53361    0.89480    1.000
    N1282    N        0.19100    0.59844    0.97974    1.000
    N1283    N        0.16834    0.63055    0.87280    1.000
    N1284    N        0.18506    0.66198    0.94042    1.000
    Si1285   Si       0.18087    0.70515    0.94962    1.000
    N1286    N        0.16842    0.72317    0.91217    1.000
    Si1287   Si       0.20237    0.64015    0.97308    1.000
    Si1288   Si       0.19629    0.64742    0.90133    1.000
    N1289    N        0.21303    0.72637    0.96996    1.000
    Si1290   Si       0.18886    0.71285    0.87531    1.000
    N1291    N        0.21717    0.67924    0.88374    1.000
    N1292    N        0.18631    0.50482    0.75103    1.000
    N1293    N        0.20770    0.82480    0.05815    1.000
    N1294    N        0.17357    0.82730    0.11711    1.000
    Si1295   Si       0.22264    0.85361    0.02891    1.000
    N1296    N        0.19354    0.99832    0.16317    1.000
    Si1297   Si       0.16785    0.82523    0.07482    1.000
    Si1298   Si       0.16972    0.87198    0.11316    1.000
    N1299    N        0.17083    0.99338    0.23679    1.000
    N1300    N        0.21785    0.96874    0.10854    1.000
    Si1301   Si       0.20370    0.96685    0.02759    1.000
    N1302    N        0.19944    0.90198    0.10304    1.000
    Si1303   Si       0.18179    0.94344    0.09667    1.000
    N1304    N        0.19441    0.00577    0.00440    1.000
    N1305    N        0.17231    0.95782    0.05663    1.000
    N1306    N        0.22004    0.80504    0.15968    1.000
    N1307    N        0.19559    0.79476    0.22717    1.000
    Si1308   Si       0.17651    0.80287    0.15302    1.000
    Si1309   Si       0.19088    0.97850    0.20183    1.000
    N1310    N        0.20747    0.85227    0.27400    1.000
    N1311    N        0.19648    0.82632    0.34803    1.000
    Si1312   Si       0.18825    0.81367    0.26645    1.000
    Si1313   Si       0.18963    0.78441    0.33949    1.000
    N1314    N        0.19736    0.78369    0.29646    1.000
    Si1315   Si       0.18596    0.86675    0.35555    1.000
    Si1316   Si       0.18032    0.88475    0.28513    1.000
    N1317    N        0.18994    0.89789    0.32427    1.000
    Si1318   Si       0.18963    0.98999    0.27730    1.000
    N1319    N        0.18520    0.91615    0.25488    1.000
    Si1320   Si       0.17125    0.93762    0.33482    1.000
    N1321    N        0.16760    0.97826    0.31409    1.000
    Si1322   Si       0.17801    0.78040    0.49225    1.000
    N1323    N        0.22004    0.86677    0.44509    1.000
    N1324    N        0.21007    0.80473    0.47650    1.000
    Si1325   Si       0.21117    0.82483    0.43730    1.000
    N1326    N        0.17790    0.80442    0.41993    1.000
    Si1327   Si       0.17583    0.76031    0.42744    1.000
    N1328    N        0.19227    0.94405    0.37241    1.000
    Si1329   Si       0.20130    0.97751    0.39619    1.000
    Si1330   Si       0.19468    0.89045    0.46985    1.000
    N1331    N        0.19959    0.97030    0.43832    1.000
    Si1332   Si       0.22400    0.93380    0.24600    1.000
    N1333    N        0.19473    0.82936    0.57032    1.000
    Si1334   Si       0.19060    0.86208    0.54041    1.000
    Si1335   Si       0.21441    0.79265    0.55392    1.000
    N1336    N        0.18294    0.77060    0.53431    1.000
    Si1337   Si       0.19762    0.83151    0.61380    1.000
    N1338    N        0.17573    0.86263    0.49793    1.000
    Si1339   Si       0.19255    0.95993    0.51866    1.000
    N1340    N        0.21945    0.94736    0.55330    1.000
    N1341    N        0.21053    0.99685    0.49961    1.000
    N1342    N        0.16655    0.00236    0.61242    1.000
    N1343    N        0.21384    0.92186    0.49594    1.000
    N1344    N        0.21415    0.76212    0.69813    1.000
    N1345    N        0.18360    0.83055    0.69755    1.000
    Si1346   Si       0.19472    0.85811    0.73070    1.000
    Si1347   Si       0.21039    0.80176    0.67806    1.000
    Si1348   Si       0.18665    0.86758    0.66534    1.000
    N1349    N        0.21314    0.79702    0.63549    1.000
    N1350    N        0.22033    0.86573    0.63399    1.000
    Si1351   Si       0.20966    0.98201    0.73152    1.000
    Si1352   Si       0.18207    0.92737    0.69448    1.000
    N1353    N        0.21972    0.95001    0.70454    1.000
    N1354    N        0.21877    0.95804    0.62690    1.000
    Si1355   Si       0.17583    0.96305    0.62716    1.000
    N1356    N        0.20755    0.88762    0.70045    1.000
    N1357    N        0.16489    0.96069    0.67031    1.000
    N1358    N        0.16720    0.99408    0.72709    1.000
    Si1359   Si       0.20881    0.84154    0.80615    1.000
    N1360    N        0.21312    0.80581    0.82996    1.000
    Si1361   Si       0.20424    0.76334    0.82265    1.000
    N1362    N        0.21874    0.84435    0.76364    1.000
    N1363    N        0.16630    0.84885    0.81064    1.000
    N1364    N        0.19103    0.93255    0.83521    1.000
    Si1365   Si       0.18515    0.96450    0.80510    1.000
    N1366    N        0.21207    0.96501    0.76932    1.000
    N1367    N        0.19197    0.99801    0.82969    1.000
    Si1368   Si       0.20985    0.81476    0.87289    1.000
    Si1369   Si       0.19141    0.87714    0.90728    1.000
    N1370    N        0.21907    0.85769    0.88058    1.000
    N1371    N        0.17122    0.85068    0.93428    1.000
    N1372    N        0.17551    0.78317    0.99433    1.000
    N1373    N        0.16636    0.80997    0.87617    1.000
    N1374    N        0.19270    0.87281    0.99764    1.000
    Si1375   Si       0.19475    0.98702    0.87148    1.000
    N1376    N        0.18926    0.94296    0.99280    1.000
    N1377    N        0.20816    0.91015    0.93059    1.000
    N1378    N        0.21618    0.98100    0.94340    1.000
    Si1379   Si       0.18208    0.98018    0.96903    1.000
    Si1380   Si       0.20922    0.90840    0.97478    1.000
    Si1381   Si       0.24180    0.06710    0.08686    1.000
    N1382    N        0.27305    0.08943    0.11422    1.000
    N1383    N        0.26047    0.03591    0.99677    1.000
    N1384    N        0.27431    0.05307    0.06147    1.000
    Si1385   Si       0.22473    0.13417    0.09972    1.000
    N1386    N        0.22505    0.03887    0.11250    1.000
    N1387    N        0.28035    0.12954    0.01542    1.000
    Si1388   Si       0.25124    0.15495    0.03464    1.000
    N1389    N        0.25258    0.19737    0.02169    1.000
    N1390    N        0.25616    0.15442    0.07673    1.000
    N1391    N        0.25915    0.03788    0.24143    1.000
    Si1392   Si       0.25864    0.10393    0.15387    1.000
    N1393    N        0.25273    0.06489    0.17337    1.000
    Si1394   Si       0.23958    0.06671    0.21549    1.000
    N1395    N        0.24590    0.10812    0.22853    1.000
    N1396    N        0.26087    0.22207    0.22685    1.000
    Si1397   Si       0.27228    0.23084    0.14432    1.000
    N1398    N        0.23074    0.24371    0.15908    1.000
    Si1399   Si       0.24701    0.03595    0.28473    1.000
    N1400    N        0.26098    0.07315    0.30153    1.000
    Si1401   Si       0.24578    0.08344    0.34244    1.000
    N1402    N        0.27663    0.10377    0.36668    1.000
    N1403    N        0.23159    0.23272    0.33617    1.000
    N1404    N        0.26370    0.16984    0.35185    1.000
    N1405    N        0.26510    0.19207    0.28778    1.000
    Si1406   Si       0.26419    0.20627    0.32820    1.000
    Si1407   Si       0.23587    0.19754    0.25531    1.000
    Si1408   Si       0.25091    0.25865    0.24942    1.000
    Si1409   Si       0.24349    0.03147    0.39721    1.000
    Si1410   Si       0.24384    0.06518    0.46396    1.000
    N1411    N        0.25068    0.09415    0.43147    1.000
    N1412    N        0.23148    0.03076    0.43951    1.000
    N1413    N        0.25765    0.11258    0.49082    1.000
    Si1414   Si       0.25288    0.13378    0.45237    1.000
    N1415    N        0.28078    0.05466    0.48668    1.000
    N1416    N        0.27964    0.15742    0.42428    1.000
    Si1417   Si       0.24609    0.18254    0.41305    1.000
    N1418    N        0.25050    0.22644    0.40649    1.000
    Si1419   Si       0.23956    0.25144    0.44351    1.000
    Si1420   Si       0.28358    0.08650    0.40624    1.000
    Si1421   Si       0.22418    0.25022    0.38011    1.000
    N1422    N        0.23802    0.07463    0.55007    1.000
    N1423    N        0.27704    0.06273    0.59922    1.000
    Si1424   Si       0.27986    0.06738    0.55602    1.000
    N1425    N        0.23872    0.00993    0.58360    1.000
    Si1426   Si       0.28221    0.01367    0.58684    1.000
    N1427    N        0.25747    0.16226    0.56306    1.000
    Si1428   Si       0.23783    0.23841    0.51470    1.000
    N1429    N        0.27756    0.22464    0.51802    1.000
    Si1430   Si       0.28294    0.17115    0.60323    1.000
    N1431    N        0.27566    0.16243    0.73953    1.000
    Si1432   Si       0.24313    0.07073    0.62477    1.000
    N1433    N        0.24529    0.11327    0.62900    1.000
    N1434    N        0.23674    0.01687    0.72560    1.000
    N1435    N        0.25128    0.05054    0.66152    1.000
    N1436    N        0.25950    0.24929    0.64009    1.000
    N1437    N        0.25907    0.20785    0.69130    1.000
    Si1438   Si       0.27299    0.24350    0.70960    1.000
    N1439    N        0.24587    0.17892    0.62786    1.000
    Si1440   Si       0.23920    0.21379    0.65212    1.000
    Si1441   Si       0.23806    0.17642    0.71750    1.000
    N1442    N        0.25621    0.02085    0.82188    1.000
    Si1443   Si       0.24164    0.09554    0.85747    1.000
    N1444    N        0.27210    0.06442    0.77261    1.000
    Si1445   Si       0.23400    0.05447    0.75216    1.000
    Si1446   Si       0.28308    0.05543    0.81448    1.000
    N1447    N        0.28244    0.08542    0.84598    1.000
    N1448    N        0.23552    0.13472    0.84079    1.000
    N1449    N        0.26256    0.18630    0.80631    1.000
    Si1450   Si       0.27307    0.15775    0.83716    1.000
    N1451    N        0.27048    0.23280    0.75175    1.000
    N1452    N        0.22769    0.24965    0.79864    1.000
    Si1453   Si       0.24678    0.24688    0.88534    1.000
    N1454    N        0.22635    0.21505    0.85946    1.000
    Si1455   Si       0.28390    0.19524    0.76888    1.000
    N1456    N        0.22886    0.08750    0.89691    1.000
    Si1457   Si       0.23648    0.09002    0.93930    1.000
    N1458    N        0.27008    0.02376    0.92326    1.000
    N1459    N        0.27877    0.08833    0.95341    1.000
    Si1460   Si       0.22679    0.02115    0.92640    1.000
    Si1461   Si       0.28396    0.04514    0.96040    1.000
    N1462    N        0.27408    0.16793    0.95698    1.000
    Si1463   Si       0.27195    0.18656    0.91655    1.000
    N1464    N        0.22774    0.18693    0.92006    1.000
    N1465    N        0.28071    0.23030    0.90906    1.000
    Si1466   Si       0.23069    0.16544    0.96138    1.000
    N1467    N        0.28331    0.16740    0.87741    1.000
    N1468    N        0.25175    0.31075    0.01515    1.000
    N1469    N        0.26709    0.26635    0.10801    1.000
    N1470    N        0.25464    0.38456    0.08231    1.000
    Si1471   Si       0.26487    0.41654    0.05396    1.000
    N1472    N        0.22911    0.43491    0.03614    1.000
    Si1473   Si       0.23414    0.50383    0.06617    1.000
    N1474    N        0.27605    0.39507    0.01792    1.000
    N1475    N        0.22737    0.47195    0.09367    1.000
    Si1476   Si       0.22960    0.40795    0.00154    1.000
    N1477    N        0.27106    0.50977    0.04429    1.000
    N1478    N        0.24133    0.29081    0.22233    1.000
    N1479    N        0.25927    0.31276    0.16209    1.000
    Si1480   Si       0.24580    0.35601    0.16108    1.000
    Si1481   Si       0.27987    0.29893    0.20181    1.000
    N1482    N        0.23690    0.37750    0.19556    1.000
    N1483    N        0.28021    0.37729    0.14488    1.000
    Si1484   Si       0.23508    0.42224    0.19496    1.000
    N1485    N        0.27764    0.43004    0.19108    1.000
    N1486    N        0.24181    0.47695    0.21975    1.000
    N1487    N        0.24496    0.28830    0.36178    1.000
    N1488    N        0.25525    0.36768    0.26303    1.000
    Si1489   Si       0.23856    0.27350    0.31972    1.000
    N1490    N        0.26781    0.27385    0.28626    1.000
    Si1491   Si       0.25573    0.39854    0.29456    1.000
    N1492    N        0.26767    0.43642    0.27248    1.000
    Si1493   Si       0.23149    0.45414    0.25636    1.000
    Si1494   Si       0.28145    0.30900    0.37959    1.000
    N1495    N        0.25634    0.33609    0.40203    1.000
    N1496    N        0.23479    0.31595    0.47181    1.000
    Si1497   Si       0.27496    0.30564    0.48085    1.000
    Si1498   Si       0.23044    0.34249    0.43824    1.000
    Si1499   Si       0.26546    0.38159    0.40775    1.000
    N1500    N        0.27684    0.26385    0.46779    1.000
    N1501    N        0.24227    0.38204    0.44555    1.000
    Si1502   Si       0.23092    0.44498    0.39371    1.000
    N1503    N        0.24111    0.40353    0.38330    1.000
    N1504    N        0.27137    0.45821    0.40305    1.000
    Si1505   Si       0.28016    0.42861    0.49674    1.000
    Si1506   Si       0.25251    0.30294    0.55358    1.000
    N1507    N        0.26686    0.28262    0.58867    1.000
    Si1508   Si       0.25389    0.37024    0.58848    1.000
    N1509    N        0.23415    0.34257    0.56289    1.000
    N1510    N        0.22818    0.27827    0.52710    1.000
    N1511    N        0.23414    0.49383    0.69546    1.000
    N1512    N        0.25114    0.40888    0.56890    1.000
    Si1513   Si       0.27192    0.48562    0.61280    1.000
    N1514    N        0.22855    0.48211    0.62074    1.000
    N1515    N        0.23748    0.42398    0.50001    1.000
    N1516    N        0.27949    0.33080    0.73274    1.000
    N1517    N        0.23560    0.26913    0.71476    1.000
    N1518    N        0.26815    0.31520    0.66401    1.000
    Si1519   Si       0.26859    0.35491    0.64866    1.000
    Si1520   Si       0.24992    0.29217    0.63088    1.000
    N1521    N        0.22906    0.36460    0.62851    1.000
    N1522    N        0.28306    0.50581    0.64686    1.000
    N1523    N        0.26651    0.38745    0.67645    1.000
    N1524    N        0.28670    0.44418    0.71464    1.000
    Si1525   Si       0.25805    0.47275    0.72718    1.000
    Si1526   Si       0.22279    0.39188    0.66526    1.000
    N1527    N        0.26507    0.50866    0.57579    1.000
    N1528    N        0.26615    0.31201    0.79777    1.000
    N1529    N        0.25697    0.27731    0.85800    1.000
    Si1530   Si       0.23845    0.28313    0.82120    1.000
    Si1531   Si       0.25258    0.33709    0.76538    1.000
    N1532    N        0.24188    0.37973    0.76654    1.000
    Si1533   Si       0.28060    0.31166    0.87090    1.000
    Si1534   Si       0.27773    0.38478    0.86262    1.000
    Si1535   Si       0.24673    0.41843    0.78769    1.000
    N1536    N        0.25433    0.40499    0.83222    1.000
    N1537    N        0.26306    0.49312    0.82376    1.000
    N1538    N        0.23236    0.45363    0.75739    1.000
    N1539    N        0.28095    0.50083    0.75118    1.000
    N1540    N        0.25652    0.34666    0.87208    1.000
    N1541    N        0.27942    0.27242    0.96850    1.000
    Si1542   Si       0.24683    0.34031    0.98437    1.000
    Si1543   Si       0.23714    0.27511    0.95553    1.000
    N1544    N        0.28111    0.35853    0.96081    1.000
    N1545    N        0.28503    0.47257    0.92465    1.000
    Si1546   Si       0.26860    0.46344    0.96371    1.000
    Si1547   Si       0.26470    0.39170    0.93521    1.000
    N1548    N        0.25386    0.42163    0.96459    1.000
    N1549    N        0.23352    0.48738    0.97458    1.000
    N1550    N        0.28348    0.40658    0.89944    1.000
    Si1551   Si       0.25906    0.56591    0.09491    1.000
    N1552    N        0.24201    0.60495    0.10717    1.000
    Si1553   Si       0.27539    0.54789    0.02451    1.000
    N1554    N        0.23839    0.55212    0.00055    1.000
    N1555    N        0.28417    0.57214    0.05961    1.000
    N1556    N        0.25447    0.67742    0.02986    1.000
    N1557    N        0.25747    0.70142    0.09707    1.000
    Si1558   Si       0.27923    0.68126    0.06645    1.000
    Si1559   Si       0.23223    0.62669    0.14664    1.000
    N1560    N        0.23442    0.52754    0.17186    1.000
    Si1561   Si       0.26597    0.59448    0.20378    1.000
    Si1562   Si       0.27610    0.53403    0.16426    1.000
    N1563    N        0.23083    0.59490    0.17697    1.000
    N1564    N        0.25375    0.58016    0.24092    1.000
    N1565    N        0.28457    0.54569    0.12369    1.000
    Si1566   Si       0.27574    0.69977    0.13980    1.000
    Si1567   Si       0.25060    0.73473    0.18862    1.000
    N1568    N        0.28304    0.70482    0.18837    1.000
    N1569    N        0.28221    0.63484    0.20796    1.000
    N1570    N        0.25497    0.66194    0.15128    1.000
    N1571    N        0.24344    0.69609    0.23875    1.000
    Si1572   Si       0.25578    0.66844    0.19756    1.000
    N1573    N        0.25133    0.73800    0.14479    1.000
    Si1574   Si       0.22584    0.72769    0.10891    1.000
    N1575    N        0.25662    0.62094    0.29715    1.000
    Si1576   Si       0.27656    0.59035    0.27456    1.000
    Si1577   Si       0.24349    0.53882    0.31854    1.000
    N1578    N        0.27830    0.55773    0.30302    1.000
    N1579    N        0.26159    0.66654    0.34360    1.000
    N1580    N        0.24565    0.72515    0.30154    1.000
    Si1581   Si       0.26958    0.70632    0.27174    1.000
    Si1582   Si       0.23055    0.69272    0.32709    1.000
    Si1583   Si       0.27636    0.61551    0.38899    1.000
    N1584    N        0.24354    0.57216    0.46027    1.000
    N1585    N        0.23287    0.60458    0.39521    1.000
    N1586    N        0.28233    0.52161    0.43786    1.000
    N1587    N        0.24393    0.75115    0.49144    1.000
    Si1588   Si       0.22991    0.66314    0.47625    1.000
    Si1589   Si       0.24169    0.73483    0.45276    1.000
    N1590    N        0.25194    0.69274    0.45280    1.000
    Si1591   Si       0.23640    0.74038    0.37825    1.000
    N1592    N        0.27501    0.72073    0.38366    1.000
    Si1593   Si       0.28786    0.64173    0.31761    1.000
    Si1594   Si       0.28208    0.56260    0.44660    1.000
    Si1595   Si       0.26997    0.52992    0.53933    1.000
    Si1596   Si       0.23940    0.59875    0.52095    1.000
    N1597    N        0.27251    0.57343    0.53866    1.000
    N1598    N        0.23540    0.51633    0.51492    1.000
    N1599    N        0.25405    0.63309    0.49866    1.000
    N1600    N        0.22682    0.68593    0.56874    1.000
    N1601    N        0.27864    0.63719    0.55743    1.000
    Si1602   Si       0.25906    0.66125    0.58609    1.000
    Si1603   Si       0.25524    0.52529    0.67415    1.000
    N1604    N        0.26577    0.60703    0.67992    1.000
    Si1605   Si       0.22831    0.58507    0.68578    1.000
    N1606    N        0.22575    0.54994    0.65579    1.000
    N1607    N        0.24977    0.71383    0.73971    1.000
    N1608    N        0.24636    0.68242    0.67790    1.000
    N1609    N        0.24854    0.64110    0.62267    1.000
    N1610    N        0.28393    0.74453    0.68561    1.000
    Si1611   Si       0.27640    0.70463    0.70587    1.000
    Si1612   Si       0.26664    0.64871    0.66269    1.000
    N1613    N        0.24541    0.55388    0.78601    1.000
    Si1614   Si       0.25708    0.59091    0.80924    1.000
    Si1615   Si       0.27191    0.51843    0.79019    1.000
    N1616    N        0.26188    0.57269    0.85209    1.000
    N1617    N        0.24349    0.62764    0.83485    1.000
    Si1618   Si       0.23107    0.59674    0.86720    1.000
    N1619    N        0.22765    0.61128    0.77404    1.000
    Si1620   Si       0.25861    0.66610    0.81659    1.000
    Si1621   Si       0.26226    0.74220    0.77112    1.000
    N1622    N        0.27630    0.69584    0.84843    1.000
    N1623    N        0.22545    0.67883    0.79401    1.000
    N1624    N        0.22712    0.74446    0.79338    1.000
    N1625    N        0.27030    0.53759    0.93938    1.000
    Si1626   Si       0.23637    0.52983    0.96294    1.000
    N1627    N        0.23489    0.61976    0.90462    1.000
    Si1628   Si       0.26715    0.63047    0.93461    1.000
    N1629    N        0.23602    0.51109    0.88502    1.000
    Si1630   Si       0.27418    0.51090    0.90463    1.000
    Si1631   Si       0.25256    0.73564    0.95488    1.000
    Si1632   Si       0.26005    0.68849    0.89014    1.000
    Si1633   Si       0.27222    0.67231    0.99035    1.000
    N1634    N        0.24600    0.64424    0.96957    1.000
    N1635    N        0.25258    0.72809    0.91058    1.000
    N1636    N        0.28727    0.66473    0.91654    1.000
    N1637    N        0.26181    0.79228    0.09251    1.000
    Si1638   Si       0.26621    0.79121    0.00438    1.000
    N1639    N        0.23389    0.76867    0.02495    1.000
    N1640    N        0.25505    0.83368    0.00872    1.000
    N1641    N        0.25487    0.85487    0.11805    1.000
    N1642    N        0.24185    0.88551    0.05247    1.000
    Si1643   Si       0.24079    0.88833    0.09485    1.000
    Si1644   Si       0.25932    0.91856    0.03017    1.000
    Si1645   Si       0.25178    0.95688    0.08590    1.000
    N1646    N        0.26625    0.92200    0.10739    1.000
    N1647    N        0.24050    0.95361    0.04477    1.000
    Si1648   Si       0.25199    0.81017    0.13109    1.000
    N1649    N        0.25713    0.76829    0.21324    1.000
    N1650    N        0.25369    0.83477    0.21923    1.000
    Si1651   Si       0.23217    0.80067    0.20349    1.000
    N1652    N        0.22759    0.95796    0.21008    1.000
    N1653    N        0.25142    0.90128    0.23904    1.000
    Si1654   Si       0.26580    0.96584    0.19004    1.000
    N1655    N        0.28034    0.92714    0.17958    1.000
    N1656    N        0.26595    0.99538    0.15597    1.000
    Si1657   Si       0.22669    0.78582    0.06448    1.000
    Si1658   Si       0.22553    0.00202    0.13490    1.000
    Si1659   Si       0.28538    0.77276    0.24605    1.000
    N1660    N        0.26778    0.79151    0.28148    1.000
    Si1661   Si       0.23797    0.76689    0.30496    1.000
    N1662    N        0.23362    0.77486    0.34901    1.000
    Si1663   Si       0.24508    0.86013    0.25411    1.000
    Si1664   Si       0.23902    0.81912    0.36363    1.000
    N1665    N        0.27744    0.82707    0.34537    1.000
    N1666    N        0.27896    0.86110    0.28304    1.000
    N1667    N        0.24933    0.93726    0.33646    1.000
    Si1668   Si       0.25895    0.96617    0.30723    1.000
    Si1669   Si       0.22932    0.91932    0.36941    1.000
    N1670    N        0.22631    0.96554    0.27780    1.000
    N1671    N        0.27075    0.00780    0.30804    1.000
    N1672    N        0.22501    0.87598    0.37482    1.000
    N1673    N        0.24416    0.81624    0.40783    1.000
    N1674    N        0.27632    0.81667    0.46728    1.000
    Si1675   Si       0.24987    0.79263    0.49198    1.000
    Si1676   Si       0.27861    0.80107    0.42661    1.000
    Si1677   Si       0.24832    0.87926    0.41211    1.000
    N1678    N        0.27744    0.75924    0.43654    1.000
    Si1679   Si       0.22988    0.99233    0.46062    1.000
    N1680    N        0.25332    0.92209    0.40635    1.000
    N1681    N        0.24343    0.98809    0.38870    1.000
    Si1682   Si       0.26908    0.96136    0.41125    1.000
    N1683    N        0.26834    0.97431    0.45319    1.000
    N1684    N        0.25014    0.80833    0.53367    1.000
    Si1685   Si       0.26825    0.84584    0.54592    1.000
    N1686    N        0.23345    0.87370    0.54338    1.000
    N1687    N        0.23654    0.76496    0.57933    1.000
    Si1688   Si       0.27799    0.78275    0.58205    1.000
    Si1689   Si       0.23791    0.91527    0.53060    1.000
    Si1690   Si       0.23608    0.96635    0.58640    1.000
    N1691    N        0.27810    0.92772    0.52775    1.000
    N1692    N        0.28054    0.96679    0.58237    1.000
    Si1693   Si       0.24043    0.76442    0.62503    1.000
    N1694    N        0.25107    0.81046    0.68973    1.000
    Si1695   Si       0.25468    0.76990    0.70715    1.000
    N1696    N        0.27928    0.87678    0.71035    1.000
    Si1697   Si       0.28221    0.83780    0.68733    1.000
    Si1698   Si       0.25956    0.88315    0.63896    1.000
    Si1699   Si       0.27527    0.99686    0.71726    1.000
    N1700    N        0.27458    0.98172    0.67579    1.000
    Si1701   Si       0.24654    0.90776    0.70868    1.000
    N1702    N        0.25877    0.91699    0.66644    1.000
    Si1703   Si       0.24120    0.95513    0.66463    1.000
    N1704    N        0.28362    0.77218    0.62343    1.000
    Si1705   Si       0.25519    0.86727    0.85522    1.000
    Si1706   Si       0.25179    0.87139    0.77341    1.000
    N1707    N        0.23709    0.87368    0.81641    1.000
    N1708    N        0.27726    0.76554    0.85514    1.000
    Si1709   Si       0.25126    0.94728    0.77285    1.000
    N1710    N        0.25825    0.95132    0.81658    1.000
    Si1711   Si       0.23347    0.93283    0.84626    1.000
    N1712    N        0.24518    0.90791    0.75371    1.000
    N1713    N        0.26381    0.90822    0.86850    1.000
    N1714    N        0.28448    0.96851    0.74924    1.000
    N1715    N        0.23950    0.79694    0.90060    1.000
    Si1716   Si       0.27093    0.86418    0.98341    1.000
    Si1717   Si       0.27105    0.80459    0.92944    1.000
    N1718    N        0.26656    0.77633    0.96156    1.000
    Si1719   Si       0.24527    0.75967    0.88261    1.000
    N1720    N        0.24978    0.90385    0.98846    1.000
    Si1721   Si       0.23123    0.94712    0.91947    1.000
    N1722    N        0.22640    0.96095    0.87928    1.000
    N1723    N        0.27506    0.94454    0.92241    1.000
    Si1724   Si       0.28535    0.98645    0.82441    1.000
    N1725    N        0.28085    0.84436    0.94507    1.000
    N1726    N        0.26688    0.77718    0.74766    1.000
    Si1727   Si       0.30101    0.06267    0.09545    1.000
    Si1728   Si       0.29317    0.03775    0.02513    1.000
    N1729    N        0.31702    0.06964    0.00603    1.000
    N1730    N        0.34146    0.07851    0.09449    1.000
    Si1731   Si       0.29434    0.17191    0.08704    1.000
    N1732    N        0.31762    0.18399    0.05285    1.000
    Si1733   Si       0.29460    0.21045    0.02422    1.000
    Si1734   Si       0.29618    0.24628    0.08163    1.000
    N1735    N        0.32039    0.14759    0.11551    1.000
    N1736    N        0.29024    0.25040    0.03755    1.000
    N1737    N        0.29014    0.21103    0.10571    1.000
    N1738    N        0.30511    0.03100    0.12577    1.000
    N1739    N        0.31198    0.04093    0.19754    1.000
    Si1740   Si       0.29591    0.01776    0.23170    1.000
    Si1741   Si       0.28668    0.12159    0.22125    1.000
    N1742    N        0.28970    0.12512    0.17742    1.000
    N1743    N        0.28596    0.19339    0.16794    1.000
    Si1744   Si       0.29317    0.19811    0.21177    1.000
    Si1745   Si       0.32627    0.25385    0.19672    1.000
    Si1746   Si       0.31053    0.15928    0.15680    1.000
    N1747    N        0.33461    0.21345    0.21307    1.000
    N1748    N        0.29869    0.16233    0.23604    1.000
    Si1749   Si       0.28523    0.03717    0.16387    1.000
    N1750    N        0.32557    0.06318    0.31007    1.000
    Si1751   Si       0.29829    0.09301    0.29009    1.000
    Si1752   Si       0.31277    0.01901    0.30892    1.000
    N1753    N        0.31458    0.10110    0.25062    1.000
    N1754    N        0.30171    0.13296    0.30557    1.000
    Si1755   Si       0.30844    0.24122    0.49169    1.000
    Si1756   Si       0.29380    0.13717    0.34912    1.000
    Si1757   Si       0.33214    0.22719    0.32420    1.000
    Si1758   Si       0.30116    0.16876    0.27951    1.000
    N1759    N        0.33339    0.19366    0.29336    1.000
    N1760    N        0.29722    0.22995    0.34817    1.000
    N1761    N        0.32755    0.15600    0.36909    1.000
    N1762    N        0.32012    0.09676    0.42204    1.000
    N1763    N        0.32854    0.12249    0.48267    1.000
    Si1764   Si       0.31717    0.01381    0.39003    1.000
    N1765    N        0.28642    0.04262    0.39826    1.000
    Si1766   Si       0.29277    0.23704    0.39133    1.000
    N1767    N        0.31965    0.20999    0.41204    1.000
    N1768    N        0.32540    0.20231    0.47739    1.000
    Si1769   Si       0.33565    0.16462    0.49423    1.000
    Si1770   Si       0.31869    0.16696    0.41116    1.000
    N1771    N        0.29887    0.10066    0.53889    1.000
    Si1772   Si       0.31108    0.02951    0.50562    1.000
    N1773    N        0.29659    0.02915    0.54757    1.000
    Si1774   Si       0.30220    0.09568    0.61375    1.000
    Si1775   Si       0.32137    0.13326    0.55558    1.000
    N1776    N        0.31502    0.01242    0.62038    1.000
    N1777    N        0.31458    0.18379    0.63837    1.000
    Si1778   Si       0.29861    0.09413    0.49697    1.000
    N1779    N        0.30697    0.13547    0.59703    1.000
    N1780    N        0.31523    0.16843    0.53192    1.000
    Si1781   Si       0.28751    0.24711    0.60661    1.000
    N1782    N        0.29160    0.21209    0.58384    1.000
    N1783    N        0.32902    0.25148    0.62324    1.000
    N1784    N        0.30581    0.09675    0.71912    1.000
    N1785    N        0.30647    0.02616    0.72208    1.000
    N1786    N        0.31033    0.10786    0.65391    1.000
    Si1787   Si       0.33625    0.09206    0.68663    1.000
    Si1788   Si       0.30606    0.06364    0.74485    1.000
    Si1789   Si       0.31058    0.14045    0.72561    1.000
    N1790    N        0.33887    0.14995    0.69229    1.000
    Si1791   Si       0.33013    0.14454    0.64613    1.000
    N1792    N        0.34460    0.05867    0.50362    1.000
    Si1793   Si       0.34525    0.21502    0.64094    1.000
    Si1794   Si       0.34234    0.02217    0.69862    1.000
    Si1795   Si       0.28287    0.19348    0.54541    1.000
    N1796    N        0.31801    0.03362    0.82434    1.000
    Si1797   Si       0.32198    0.10573    0.84729    1.000
    Si1798   Si       0.33347    0.01560    0.86166    1.000
    Si1799   Si       0.33595    0.15953    0.79415    1.000
    N1800    N        0.31249    0.14283    0.82570    1.000
    N1801    N        0.32487    0.19937    0.78192    1.000
    N1802    N        0.33744    0.13425    0.76029    1.000
    N1803    N        0.31633    0.01635    0.96113    1.000
    Si1804   Si       0.30192    0.10489    0.98595    1.000
    N1805    N        0.33519    0.03522    0.89899    1.000
    N1806    N        0.34229    0.12280    0.88135    1.000
    N1807    N        0.33278    0.13293    0.97309    1.000
    Si1808   Si       0.32601    0.16358    0.88259    1.000
    N1809    N        0.31938    0.20806    0.98926    1.000
    Si1810   Si       0.31617    0.17051    0.96568    1.000
    N1811    N        0.34263    0.25709    0.91700    1.000
    N1812    N        0.32939    0.18343    0.92457    1.000
    N1813    N        0.31705    0.31110    0.03121    1.000
    Si1814   Si       0.32757    0.30781    0.07358    1.000
    N1815    N        0.29403    0.32497    0.09858    1.000
    N1816    N        0.33472    0.26458    0.08658    1.000
    Si1817   Si       0.28970    0.36867    0.10252    1.000
    Si1818   Si       0.28645    0.28548    0.01091    1.000
    N1819    N        0.34126    0.37233    0.00068    1.000
    N1820    N        0.32556    0.39108    0.08996    1.000
    N1821    N        0.29550    0.44551    0.06412    1.000
    Si1822   Si       0.32711    0.43494    0.09235    1.000
    Si1823   Si       0.30179    0.48033    0.03831    1.000
    N1824    N        0.33934    0.50062    0.04315    1.000
    Si1825   Si       0.29271    0.29721    0.13429    1.000
    N1826    N        0.29803    0.33771    0.20997    1.000
    N1827    N        0.33068    0.31783    0.15075    1.000
    N1828    N        0.30868    0.27584    0.23070    1.000
    Si1829   Si       0.33107    0.34797    0.18443    1.000
    N1830    N        0.29686    0.26329    0.16472    1.000
    N1831    N        0.31533    0.44280    0.13321    1.000
    Si1832   Si       0.32904    0.48154    0.14930    1.000
    N1833    N        0.29622    0.49877    0.17423    1.000
    Si1834   Si       0.30409    0.41042    0.16066    1.000
    N1835    N        0.31779    0.46478    0.23147    1.000
    N1836    N        0.33874    0.39062    0.17480    1.000
    Si1837   Si       0.28287    0.47025    0.20682    1.000
    N1838    N        0.31247    0.32796    0.35517    1.000
    Si1839   Si       0.30881    0.28460    0.27390    1.000
    N1840    N        0.30959    0.32754    0.28067    1.000
    Si1841   Si       0.31457    0.35053    0.31684    1.000
    N1842    N        0.33505    0.26714    0.30399    1.000
    Si1843   Si       0.29612    0.35624    0.25044    1.000
    N1844    N        0.28877    0.38653    0.32091    1.000
    N1845    N        0.30771    0.49441    0.34999    1.000
    Si1846   Si       0.32532    0.40990    0.32556    1.000
    Si1847   Si       0.30767    0.43087    0.26030    1.000
    N1848    N        0.32807    0.44193    0.29729    1.000
    N1849    N        0.32631    0.42692    0.36518    1.000
    N1850    N        0.32100    0.39198    0.25262    1.000
    Si1851   Si       0.32634    0.28999    0.43634    1.000
    N1852    N        0.30073    0.27825    0.40325    1.000
    N1853    N        0.30638    0.32406    0.45704    1.000
    Si1854   Si       0.31560    0.36555    0.45822    1.000
    N1855    N        0.30552    0.38655    0.41939    1.000
    N1856    N        0.29461    0.46213    0.47219    1.000
    Si1857   Si       0.30700    0.46282    0.37806    1.000
    N1858    N        0.33020    0.48033    0.41266    1.000
    N1859    N        0.30170    0.39101    0.49130    1.000
    Si1860   Si       0.29191    0.48092    0.43483    1.000
    Si1861   Si       0.33982    0.40311    0.39736    1.000
    Si1862   Si       0.32622    0.30778    0.53660    1.000
    Si1863   Si       0.32991    0.34065    0.60542    1.000
    N1864    N        0.33402    0.27012    0.51687    1.000
    N1865    N        0.28795    0.35419    0.61200    1.000
    N1866    N        0.33887    0.30725    0.57694    1.000
    N1867    N        0.34168    0.34399    0.52067    1.000
    Si1868   Si       0.32703    0.38601    0.52546    1.000
    N1869    N        0.31930    0.39518    0.56643    1.000
    N1870    N        0.29682    0.44995    0.60655    1.000
    N1871    N        0.29732    0.44792    0.53090    1.000
    Si1872   Si       0.29046    0.42807    0.56970    1.000
    Si1873   Si       0.31846    0.47758    0.50725    1.000
    Si1874   Si       0.31816    0.35134    0.73697    1.000
    N1875    N        0.33142    0.33097    0.70150    1.000
    Si1876   Si       0.29395    0.30735    0.69712    1.000
    N1877    N        0.30876    0.26634    0.70488    1.000
    N1878    N        0.34528    0.31430    0.63819    1.000
    Si1879   Si       0.33408    0.44911    0.62703    1.000
    Si1880   Si       0.30153    0.41070    0.68903    1.000
    N1881    N        0.33174    0.43329    0.66877    1.000
    N1882    N        0.31895    0.39228    0.72511    1.000
    N1883    N        0.33749    0.50577    0.70025    1.000
    N1884    N        0.28366    0.31327    0.52370    1.000
    N1885    N        0.31873    0.31716    0.84692    1.000
    Si1886   Si       0.30904    0.30746    0.80499    1.000
    N1887    N        0.33118    0.33088    0.77353    1.000
    N1888    N        0.32046    0.26690    0.80010    1.000
    N1889    N        0.31721    0.38516    0.84543    1.000
    N1890    N        0.30641    0.45462    0.85297    1.000
    Si1891   Si       0.31318    0.42362    0.82348    1.000
    Si1892   Si       0.30741    0.49518    0.83960    1.000
    N1893    N        0.29137    0.42739    0.78612    1.000
    N1894    N        0.29289    0.29939    0.91117    1.000
    N1895    N        0.33502    0.31079    0.96560    1.000
    Si1896   Si       0.30624    0.32951    0.93982    1.000
    N1897    N        0.33223    0.35664    0.91544    1.000
    Si1898   Si       0.30090    0.26191    0.93125    1.000
    Si1899   Si       0.33867    0.45538    0.97851    1.000
    N1900    N        0.30065    0.46822    0.99552    1.000
    N1901    N        0.32282    0.41885    0.96031    1.000
    Si1902   Si       0.30492    0.38950    0.98746    1.000
    Si1903   Si       0.30405    0.44614    0.89453    1.000
    Si1904   Si       0.30946    0.42954    0.74814    1.000
    Si1905   Si       0.31793    0.60066    0.06786    1.000
    N1906    N        0.33373    0.58794    0.10468    1.000
    N1907    N        0.34251    0.51074    0.11425    1.000
    Si1908   Si       0.32680    0.63699    0.20295    1.000
    Si1909   Si       0.33545    0.71898    0.09452    1.000
    N1910    N        0.30235    0.64255    0.06588    1.000
    N1911    N        0.31235    0.70697    0.05649    1.000
    Si1912   Si       0.33187    0.65119    0.03188    1.000
    Si1913   Si       0.32261    0.74679    0.04312    1.000
    Si1914   Si       0.32900    0.55074    0.12764    1.000
    Si1915   Si       0.33699    0.56333    0.20051    1.000
    N1916    N        0.29525    0.56572    0.18660    1.000
    N1917    N        0.31787    0.69659    0.12666    1.000
    Si1918   Si       0.31697    0.71225    0.21584    1.000
    N1919    N        0.34398    0.63564    0.16319    1.000
    N1920    N        0.33788    0.67528    0.21898    1.000
    Si1921   Si       0.34489    0.52449    0.00896    1.000
    N1922    N        0.34345    0.53092    0.23039    1.000
    N1923    N        0.34002    0.60184    0.22308    1.000
    N1924    N        0.31742    0.60473    0.28953    1.000
    Si1925   Si       0.30915    0.57981    0.32395    1.000
    N1926    N        0.29823    0.61261    0.35132    1.000
    N1927    N        0.33609    0.55889    0.34880    1.000
    Si1928   Si       0.34319    0.51687    0.33943    1.000
    N1929    N        0.32877    0.67885    0.34465    1.000
    Si1930   Si       0.32912    0.70019    0.30560    1.000
    N1931    N        0.32107    0.73953    0.32207    1.000
    N1932    N        0.29524    0.67613    0.28786    1.000
    Si1933   Si       0.29215    0.68052    0.36846    1.000
    N1934    N        0.30078    0.73122    0.25402    1.000
    N1935    N        0.30748    0.65520    0.47427    1.000
    N1936    N        0.29792    0.58417    0.41220    1.000
    N1937    N        0.31254    0.57095    0.47663    1.000
    Si1938   Si       0.33522    0.58197    0.38702    1.000
    Si1939   Si       0.30546    0.73647    0.41351    1.000
    N1940    N        0.32208    0.70781    0.44343    1.000
    Si1941   Si       0.29064    0.67539    0.44143    1.000
    Si1942   Si       0.32826    0.69915    0.48714    1.000
    N1943    N        0.28931    0.65453    0.40300    1.000
    N1944    N        0.34499    0.74186    0.39383    1.000
    Si1945   Si       0.30484    0.60155    0.55391    1.000
    N1946    N        0.32405    0.59402    0.59051    1.000
    Si1947   Si       0.33389    0.54868    0.50683    1.000
    N1948    N        0.32925    0.62695    0.52746    1.000
    N1949    N        0.30855    0.51645    0.51988    1.000
    Si1950   Si       0.30850    0.71324    0.56076    1.000
    N1951    N        0.30027    0.69360    0.52358    1.000
    Si1952   Si       0.29051    0.64964    0.51698    1.000
    N1953    N        0.29214    0.69056    0.59602    1.000
    N1954    N        0.32460    0.56149    0.65405    1.000
    N1955    N        0.32717    0.61270    0.70581    1.000
    Si1956   Si       0.30148    0.58280    0.68416    1.000
    Si1957   Si       0.30996    0.52446    0.72820    1.000
    Si1958   Si       0.32222    0.51739    0.65949    1.000
    N1959    N        0.33552    0.55358    0.74718    1.000
    Si1960   Si       0.31305    0.75680    0.65424    1.000
    Si1961   Si       0.32201    0.68546    0.62657    1.000
    Si1962   Si       0.32954    0.65573    0.69851    1.000
    N1963    N        0.33647    0.72541    0.63777    1.000
    N1964    N        0.30588    0.66517    0.66062    1.000
    N1965    N        0.30904    0.68368    0.72465    1.000
    N1966    N        0.28277    0.54652    0.70138    1.000
    Si1967   Si       0.30168    0.55897    0.84317    1.000
    N1968    N        0.29995    0.59064    0.80613    1.000
    N1969    N        0.31025    0.53176    0.81090    1.000
    Si1970   Si       0.33246    0.56265    0.78958    1.000
    Si1971   Si       0.32500    0.62720    0.79916    1.000
    N1972    N        0.30274    0.73006    0.78140    1.000
    Si1973   Si       0.30268    0.72928    0.85438    1.000
    Si1974   Si       0.31393    0.68983    0.77086    1.000
    N1975    N        0.29433    0.65733    0.79209    1.000
    N1976    N        0.33858    0.74647    0.83843    1.000
    N1977    N        0.31685    0.72393    0.89722    1.000
    N1978    N        0.33803    0.55217    0.92932    1.000
    N1979    N        0.30294    0.52193    0.87413    1.000
    Si1980   Si       0.30387    0.56134    0.95577    1.000
    N1981    N        0.29824    0.60431    0.94577    1.000
    N1982    N        0.30879    0.55009    0.99741    1.000
    N1983    N        0.31210    0.65129    0.99289    1.000
    Si1984   Si       0.31403    0.69806    0.93457    1.000
    N1985    N        0.28223    0.70737    0.96648    1.000
    Si1986   Si       0.33017    0.63683    0.95768    1.000
    N1987    N        0.34014    0.56973    0.86180    1.000
    Si1988   Si       0.33469    0.76197    0.91749    1.000
    N1989    N        0.31890    0.83124    0.09051    1.000
    Si1990   Si       0.30057    0.79542    0.07455    1.000
    N1991    N        0.29912    0.78236    0.03156    1.000
    N1992    N        0.32787    0.76145    0.08438    1.000
    N1993    N        0.29961    0.92796    0.03639    1.000
    Si1994   Si       0.31362    0.96605    0.05122    1.000
    Si1995   Si       0.32988    0.91412    0.00756    1.000
    N1996    N        0.31469    0.00058    0.02472    1.000
    N1997    N        0.28867    0.98170    0.08488    1.000
    Si1998   Si       0.29904    0.84940    0.12435    1.000
    Si1999   Si       0.29540    0.83042    0.19964    1.000
    N2000    N        0.31388    0.80227    0.22862    1.000
    N2001    N        0.31231    0.86911    0.20130    1.000
    N2002    N        0.29015    0.81934    0.15587    1.000
    Si2003   Si       0.29615    0.91953    0.13893    1.000
    Si2004   Si       0.29980    0.98943    0.12590    1.000
    N2005    N        0.29196    0.97658    0.22166    1.000
    N2006    N        0.32336    0.95588    0.13884    1.000
    N2007    N        0.31988    0.88585    0.13163    1.000
    N2008    N        0.31725    0.91380    0.24298    1.000
    Si2009   Si       0.28652    0.90249    0.21397    1.000
    N2010    N        0.33041    0.81304    0.29695    1.000
    Si2011   Si       0.28847    0.82448    0.30282    1.000
    Si2012   Si       0.30647    0.96035    0.46885    1.000
    Si2013   Si       0.29947    0.90192    0.28476    1.000
    N2014    N        0.29326    0.94651    0.29102    1.000
    N2015    N        0.33262    0.89249    0.30994    1.000
    Si2016   Si       0.31596    0.95764    0.25484    1.000
    N2017    N        0.33377    0.01016    0.34855    1.000
    Si2018   Si       0.30499    0.83698    0.37866    1.000
    Si2019   Si       0.31065    0.83322    0.48614    1.000
    N2020    N        0.31817    0.80394    0.40500    1.000
    N2021    N        0.28887    0.86452    0.40918    1.000
    N2022    N        0.33694    0.85883    0.46193    1.000
    N2023    N        0.29914    0.91591    0.46363    1.000
    N2024    N        0.30991    0.97184    0.40223    1.000
    Si2025   Si       0.31517    0.88520    0.43489    1.000
    N2026    N        0.32317    0.00724    0.26649    1.000
    N2027    N        0.29648    0.86111    0.51648    1.000
    Si2028   Si       0.31262    0.85608    0.61122    1.000
    Si2029   Si       0.33406    0.76607    0.53067    1.000
    N2030    N        0.33555    0.80221    0.50326    1.000
    N2031    N        0.30041    0.75709    0.55598    1.000
    N2032    N        0.28849    0.82667    0.58099    1.000
    N2033    N        0.31083    0.98437    0.50411    1.000
    Si2034   Si       0.29810    0.96251    0.54192    1.000
    Si2035   Si       0.30518    0.93102    0.59460    1.000
    N2036    N        0.33388    0.94073    0.56236    1.000
    Si2037   Si       0.30331    0.90064    0.50566    1.000
    N2038    N        0.28489    0.89323    0.60348    1.000
    Si2039   Si       0.31168    0.87555    0.73982    1.000
    N2040    N        0.28837    0.84974    0.64823    1.000
    N2041    N        0.30967    0.81756    0.71533    1.000
    N2042    N        0.31859    0.94553    0.63207    1.000
    Si2043   Si       0.31079    0.98256    0.65184    1.000
    N2044    N        0.31197    0.79771    0.79263    1.000
    Si2045   Si       0.31404    0.83840    0.81062    1.000
    N2046    N        0.29049    0.85251    0.77165    1.000
    Si2047   Si       0.29293    0.80959    0.75431    1.000
    Si2048   Si       0.30330    0.80034    0.85927    1.000
    N2049    N        0.28642    0.83856    0.84697    1.000
    Si2050   Si       0.32997    0.75880    0.79727    1.000
    Si2051   Si       0.32206    0.95271    0.76550    1.000
    N2052    N        0.32108    0.96684    0.80592    1.000
    N2053    N        0.32554    0.91012    0.76382    1.000
    N2054    N        0.32922    0.92281    0.86629    1.000
    N2055    N        0.29895    0.98425    0.86767    1.000
    N2056    N        0.33566    0.97027    0.91760    1.000
    Si2057   Si       0.32105    0.86158    0.94853    1.000
    N2058    N        0.30989    0.79758    0.90387    1.000
    N2059    N        0.31238    0.87756    0.99108    1.000
    N2060    N        0.33065    0.89935    0.93091    1.000
    Si2061   Si       0.33689    0.99048    0.98872    1.000
    N2062    N        0.33071    0.94856    0.98151    1.000
    Si2063   Si       0.31568    0.93925    0.94189    1.000
    Si2064   Si       0.30860    0.00453    0.91869    1.000
    Si2065   Si       0.29188    0.94033    0.88144    1.000
    N2066    N        0.37898    0.06754    0.03237    1.000
    Si2067   Si       0.35133    0.11950    0.10093    1.000
    Si2068   Si       0.39283    0.10916    0.03634    1.000
    Si2069   Si       0.37389    0.06210    0.11840    1.000
    Si2070   Si       0.35676    0.05325    0.99670    1.000
    N2071    N        0.36964    0.13388    0.06282    1.000
    Si2072   Si       0.37274    0.24469    0.07233    1.000
    N2073    N        0.37542    0.18587    0.01430    1.000
    N2074    N        0.38117    0.20224    0.07994    1.000
    Si2075   Si       0.36156    0.17500    0.05351    1.000
    N2076    N        0.37473    0.25124    0.02995    1.000
    Si2077   Si       0.39471    0.01543    0.17837    1.000
    N2078    N        0.36655    0.04598    0.15689    1.000
    Si2079   Si       0.34991    0.05872    0.19573    1.000
    N2080    N        0.37699    0.02866    0.21785    1.000
    Si2081   Si       0.37636    0.12629    0.17366    1.000
    N2082    N        0.38125    0.10849    0.13272    1.000
    N2083    N        0.36584    0.09875    0.20452    1.000
    Si2084   Si       0.35749    0.11417    0.24599    1.000
    N2085    N        0.37562    0.15596    0.24244    1.000
    N2086    N        0.35087    0.15995    0.17577    1.000
    Si2087   Si       0.40078    0.23396    0.17298    1.000
    Si2088   Si       0.36291    0.18226    0.20887    1.000
    N2089    N        0.37374    0.01322    0.99270    1.000
    Si2090   Si       0.35839    0.22511    0.99918    1.000
    N2091    N        0.39745    0.12652    0.99721    1.000
    Si2092   Si       0.36894    0.06386    0.30702    1.000
    N2093    N        0.38000    0.09765    0.27944    1.000
    N2094    N        0.38173    0.02879    0.28655    1.000
    N2095    N        0.38831    0.08250    0.34090    1.000
    Si2096   Si       0.40044    0.11367    0.31363    1.000
    Si2097   Si       0.36562    0.17172    0.35429    1.000
    N2098    N        0.38285    0.15418    0.31768    1.000
    N2099    N        0.37013    0.21395    0.34233    1.000
    Si2100   Si       0.37229    0.17858    0.28367    1.000
    Si2101   Si       0.38597    0.04525    0.43420    1.000
    N2102    N        0.38527    0.08972    0.44116    1.000
    N2103    N        0.35502    0.02620    0.40817    1.000
    Si2104   Si       0.34935    0.11378    0.44624    1.000
    N2105    N        0.35442    0.15704    0.43601    1.000
    N2106    N        0.39641    0.17445    0.38541    1.000
    N2107    N        0.39245    0.21147    0.44674    1.000
    Si2108   Si       0.39587    0.16969    0.42757    1.000
    Si2109   Si       0.34844    0.21622    0.44316    1.000
    N2110    N        0.40096    0.03427    0.47351    1.000
    Si2111   Si       0.37233    0.10737    0.59415    1.000
    N2112    N        0.38257    0.02127    0.60933    1.000
    Si2113   Si       0.38775    0.05748    0.50804    1.000
    N2114    N        0.36416    0.12595    0.55510    1.000
    N2115    N        0.39527    0.03638    0.54482    1.000
    N2116    N        0.39556    0.17499    0.73254    1.000
    Si2117   Si       0.39122    0.13394    0.52338    1.000
    N2118    N        0.38235    0.20416    0.62027    1.000
    N2119    N        0.39903    0.23733    0.50703    1.000
    N2120    N        0.37844    0.16911    0.50057    1.000
    N2121    N        0.37929    0.02430    0.71934    1.000
    N2122    N        0.37205    0.09149    0.71333    1.000
    Si2123   Si       0.34726    0.04158    0.62525    1.000
    N2124    N        0.34496    0.05390    0.66790    1.000
    Si2125   Si       0.34963    0.25118    0.70924    1.000
    Si2126   Si       0.37313    0.17547    0.69396    1.000
    N2127    N        0.36917    0.13665    0.62568    1.000
    Si2128   Si       0.40016    0.16552    0.62478    1.000
    N2129    N        0.35601    0.21508    0.68391    1.000
    N2130    N        0.36573    0.23902    0.74825    1.000
    N2131    N        0.34227    0.07757    0.60299    1.000
    N2132    N        0.35772    0.09412    0.82576    1.000
    Si2133   Si       0.35752    0.04938    0.80793    1.000
    N2134    N        0.38644    0.03967    0.84238    1.000
    Si2135   Si       0.36627    0.10165    0.75617    1.000
    Si2136   Si       0.38880    0.12557    0.82067    1.000
    N2137    N        0.37524    0.00947    0.79292    1.000
    N2138    N        0.34466    0.06433    0.76820    1.000
    Si2139   Si       0.38522    0.19899    0.83922    1.000
    N2140    N        0.38108    0.23294    0.81405    1.000
    N2141    N        0.37547    0.16546    0.81096    1.000
    Si2142   Si       0.34644    0.23582    0.78602    1.000
    N2143    N        0.35226    0.19636    0.86777    1.000
    N2144    N        0.39740    0.07501    0.89819    1.000
    Si2145   Si       0.38494    0.11494    0.89308    1.000
    Si2146   Si       0.37309    0.11541    0.96334    1.000
    Si2147   Si       0.37242    0.04891    0.92182    1.000
    N2148    N        0.36540    0.07383    0.95737    1.000
    N2149    N        0.39502    0.20535    0.91583    1.000
    N2150    N        0.39415    0.00895    0.92378    1.000
    N2151    N        0.39273    0.13531    0.93107    1.000
    N2152    N        0.37520    0.25401    0.97016    1.000
    Si2153   Si       0.35600    0.21541    0.90777    1.000
    N2154    N        0.36212    0.33016    0.08219    1.000
    Si2155   Si       0.36388    0.37172    0.08898    1.000
    N2156    N        0.38686    0.31631    0.01339    1.000
    Si2157   Si       0.34644    0.32943    0.00348    1.000
    Si2158   Si       0.39956    0.31055    0.09336    1.000
    Si2159   Si       0.39807    0.27601    0.00152    1.000
    Si2160   Si       0.36468    0.49910    0.08000    1.000
    N2161    N        0.36561    0.45348    0.08341    1.000
    N2162    N        0.40233    0.39206    0.09223    1.000
    Si2163   Si       0.40101    0.43590    0.10092    1.000
    Si2164   Si       0.36894    0.30079    0.16326    1.000
    N2165    N        0.36831    0.32712    0.19931    1.000
    Si2166   Si       0.38984    0.32166    0.23590    1.000
    N2167    N        0.36627    0.26025    0.17664    1.000
    Si2168   Si       0.35073    0.49042    0.21984    1.000
    Si2169   Si       0.39879    0.46012    0.18029    1.000
    N2170    N        0.36155    0.48047    0.17880    1.000
    N2171    N        0.40372    0.42699    0.20432    1.000
    N2172    N        0.37946    0.30766    0.34895    1.000
    Si2173   Si       0.37275    0.28749    0.31253    1.000
    N2174    N        0.38142    0.30118    0.27291    1.000
    N2175    N        0.35010    0.37469    0.31115    1.000
    N2176    N        0.39405    0.36235    0.24938    1.000
    Si2177   Si       0.36343    0.38752    0.27036    1.000
    Si2178   Si       0.36403    0.46393    0.28783    1.000
    N2179    N        0.38141    0.42534    0.26965    1.000
    N2180    N        0.39911    0.46152    0.31587    1.000
    N2181    N        0.38603    0.48811    0.24720    1.000
    N2182    N        0.36137    0.47537    0.49775    1.000
    Si2183   Si       0.38959    0.50329    0.47610    1.000
    Si2184   Si       0.37592    0.34860    0.49453    1.000
    Si2185   Si       0.35092    0.32518    0.37706    1.000
    N2186    N        0.36047    0.36523    0.38971    1.000
    Si2187   Si       0.38451    0.37473    0.42562    1.000
    N2188    N        0.35931    0.37041    0.46120    1.000
    N2189    N        0.36119    0.30600    0.41530    1.000
    N2190    N        0.38712    0.30693    0.48359    1.000
    Si2191   Si       0.39703    0.30807    0.43947    1.000
    Si2192   Si       0.37069    0.26663    0.49222    1.000
    N2193    N        0.34536    0.25817    0.45800    1.000
    N2194    N        0.39867    0.48918    0.43533    1.000
    N2195    N        0.37886    0.41688    0.41784    1.000
    Si2196   Si       0.36574    0.50637    0.41123    1.000
    N2197    N        0.36639    0.36548    0.60411    1.000
    Si2198   Si       0.35407    0.28256    0.61108    1.000
    N2199    N        0.39493    0.26976    0.60464    1.000
    N2200    N        0.36321    0.41072    0.52816    1.000
    Si2201   Si       0.36335    0.40058    0.57529    1.000
    N2202    N        0.36629    0.43496    0.60250    1.000
    Si2203   Si       0.38764    0.44276    0.51377    1.000
    N2204    N        0.34600    0.49022    0.63570    1.000
    N2205    N        0.37786    0.28066    0.69167    1.000
    Si2206   Si       0.36282    0.31903    0.67623    1.000
    N2207    N        0.39699    0.34477    0.67375    1.000
    N2208    N        0.38806    0.46582    0.69511    1.000
    Si2209   Si       0.34575    0.45784    0.70250    1.000
    N2210    N        0.34522    0.45429    0.74650    1.000
    Si2211   Si       0.38507    0.50930    0.62916    1.000
    Si2212   Si       0.37205    0.33243    0.78218    1.000
    N2213    N        0.37403    0.35696    0.81747    1.000
    N2214    N        0.39627    0.29700    0.78750    1.000
    Si2215   Si       0.34412    0.35103    0.85330    1.000
    Si2216   Si       0.37213    0.45160    0.78067    1.000
    N2217    N        0.35408    0.49525    0.84503    1.000
    N2218    N        0.35641    0.43206    0.81856    1.000
    Si2219   Si       0.38290    0.39916    0.81094    1.000
    Si2220   Si       0.36197    0.45381    0.85818    1.000
    N2221    N        0.39783    0.48351    0.79121    1.000
    N2222    N        0.39416    0.41534    0.77237    1.000
    Si2223   Si       0.37708    0.39489    0.98659    1.000
    N2224    N        0.38053    0.35428    0.87632    1.000
    Si2225   Si       0.37576    0.34993    0.91824    1.000
    Si2226   Si       0.36085    0.28547    0.94440    1.000
    N2227    N        0.39302    0.31375    0.93436    1.000
    N2228    N        0.37912    0.38553    0.94420    1.000
    N2229    N        0.34663    0.43367    0.89695    1.000
    N2230    N        0.37821    0.43784    0.99377    1.000
    N2231    N        0.35528    0.49853    0.97378    1.000
    Si2232   Si       0.34057    0.39856    0.92542    1.000
    N2233    N        0.37984    0.50848    0.90231    1.000
    Si2234   Si       0.37691    0.59467    0.00906    1.000
    N2235    N        0.37674    0.55228    0.01316    1.000
    N2236    N        0.39644    0.53402    0.07870    1.000
    Si2237   Si       0.35091    0.67282    0.14108    1.000
    Si2238   Si       0.39006    0.72744    0.04990    1.000
    Si2239   Si       0.38675    0.66673    0.07631    1.000
    N2240    N        0.35827    0.73864    0.02031    1.000
    N2241    N        0.37819    0.71148    0.08885    1.000
    N2242    N        0.36875    0.67009    0.03759    1.000
    N2243    N        0.36498    0.64854    0.10654    1.000
    N2244    N        0.35627    0.55947    0.16256    1.000
    Si2245   Si       0.36064    0.61012    0.12942    1.000
    N2246    N        0.40124    0.59316    0.12835    1.000
    N2247    N        0.34660    0.73731    0.19986    1.000
    Si2248   Si       0.39898    0.56425    0.16299    1.000
    N2249    N        0.38254    0.70161    0.15239    1.000
    N2250    N        0.34615    0.60838    0.03714    1.000
    Si2251   Si       0.38478    0.71910    0.19158    1.000
    N2252    N        0.37811    0.56651    0.27619    1.000
    Si2253   Si       0.36894    0.52685    0.26547    1.000
    Si2254   Si       0.35418    0.60244    0.26548    1.000
    Si2255   Si       0.39983    0.71431    0.29889    1.000
    N2256    N        0.38244    0.63667    0.26461    1.000
    N2257    N        0.36291    0.70005    0.27957    1.000
    N2258    N        0.38314    0.71663    0.33981    1.000
    Si2259   Si       0.37042    0.67830    0.35612    1.000
    N2260    N        0.39167    0.64699    0.33440    1.000
    Si2261   Si       0.35204    0.74763    0.34962    1.000
    Si2262   Si       0.39157    0.55006    0.38149    1.000
    N2263    N        0.35474    0.61370    0.44874    1.000
    N2264    N        0.36552    0.53870    0.47654    1.000
    N2265    N        0.37154    0.60694    0.38506    1.000
    N2266    N        0.35742    0.55121    0.41242    1.000
    Si2267   Si       0.35015    0.57036    0.45067    1.000
    Si2268   Si       0.34587    0.63273    0.48636    1.000
    Si2269   Si       0.37836    0.63500    0.41867    1.000
    Si2270   Si       0.36102    0.70907    0.42172    1.000
    N2271    N        0.36539    0.67369    0.48439    1.000
    N2272    N        0.36886    0.67327    0.39996    1.000
    N2273    N        0.39014    0.72859    0.44645    1.000
    Si2274   Si       0.39052    0.73786    0.49190    1.000
    N2275    N        0.35269    0.50630    0.29937    1.000
    N2276    N        0.37730    0.50985    0.36741    1.000
    Si2277   Si       0.37289    0.67549    0.24595    1.000
    Si2278   Si       0.37117    0.61353    0.54413    1.000
    N2279    N        0.37192    0.54424    0.60381    1.000
    Si2280   Si       0.38610    0.55584    0.56526    1.000
    N2281    N        0.35505    0.56770    0.53933    1.000
    N2282    N        0.38659    0.61673    0.50229    1.000
    Si2283   Si       0.34924    0.57767    0.61958    1.000
    N2284    N        0.34833    0.73611    0.50237    1.000
    N2285    N        0.35003    0.71549    0.57360    1.000
    Si2286   Si       0.37677    0.68124    0.58301    1.000
    Si2287   Si       0.36956    0.73533    0.60825    1.000
    N2288    N        0.35750    0.66217    0.61544    1.000
    N2289    N        0.38634    0.65704    0.55043    1.000
    N2290    N        0.38564    0.71839    0.72769    1.000
    N2291    N        0.39870    0.59627    0.57559    1.000
    N2292    N        0.39192    0.53226    0.66499    1.000
    Si2293   Si       0.35243    0.59060    0.73285    1.000
    N2294    N        0.37561    0.60380    0.64219    1.000
    N2295    N        0.38951    0.58475    0.71070    1.000
    Si2296   Si       0.39884    0.57609    0.66826    1.000
    Si2297   Si       0.38116    0.51027    0.69927    1.000
    Si2298   Si       0.37862    0.64863    0.64955    1.000
    N2299    N        0.36929    0.66882    0.68543    1.000
    N2300    N        0.37468    0.55279    0.80145    1.000
    Si2301   Si       0.36449    0.60361    0.86123    1.000
    N2302    N        0.35368    0.60485    0.77415    1.000
    Si2303   Si       0.39359    0.59442    0.80050    1.000
    Si2304   Si       0.38710    0.51444    0.81948    1.000
    N2305    N        0.34988    0.63351    0.83441    1.000
    Si2306   Si       0.37382    0.74906    0.98181    1.000
    Si2307   Si       0.38315    0.71423    0.77168    1.000
    Si2308   Si       0.38126    0.66729    0.82114    1.000
    N2309    N        0.35443    0.68247    0.78627    1.000
    N2310    N        0.39251    0.67228    0.86509    1.000
    N2311    N        0.37083    0.75498    0.78192    1.000
    N2312    N        0.36210    0.60759    0.97053    1.000
    Si2313   Si       0.36898    0.58585    0.93281    1.000
    N2314    N        0.37275    0.61560    0.90211    1.000
    Si2315   Si       0.38561    0.51472    0.94496    1.000
    Si2316   Si       0.34324    0.53107    0.88918    1.000
    N2317    N        0.34927    0.67017    0.93642    1.000
    Si2318   Si       0.38173    0.65800    0.90780    1.000
    N2319    N        0.34320    0.73777    0.95273    1.000
    N2320    N        0.40147    0.55705    0.94227    1.000
    N2321    N        0.37396    0.83298    0.03940    1.000
    Si2322   Si       0.35954    0.84168    0.08042    1.000
    N2323    N        0.38755    0.81739    0.10787    1.000
    Si2324   Si       0.39004    0.86725    0.02063    1.000
    Si2325   Si       0.39554    0.79780    0.02677    1.000
    N2326    N        0.36771    0.88386    0.08827    1.000
    N2327    N        0.40067    0.76904    0.05980    1.000
    N2328    N        0.36661    0.90470    0.02601    1.000
    Si2329   Si       0.37292    0.91934    0.06524    1.000
    N2330    N        0.35373    0.95879    0.06546    1.000
    Si2331   Si       0.39308    0.97973    0.07487    1.000
    N2332    N        0.38431    0.98837    0.11420    1.000
    Si2333   Si       0.39103    0.81848    0.15141    1.000
    N2334    N        0.35896    0.79716    0.16992    1.000
    N2335    N        0.38193    0.86063    0.15968    1.000
    Si2336   Si       0.34681    0.77950    0.20588    1.000
    N2337    N        0.37644    0.78618    0.23938    1.000
    Si2338   Si       0.34532    0.88553    0.22490    1.000
    N2339    N        0.37897    0.90664    0.20559    1.000
    Si2340   Si       0.36693    0.96094    0.14107    1.000
    N2341    N        0.38862    0.92381    0.13321    1.000
    Si2342   Si       0.36371    0.88821    0.13143    1.000
    Si2343   Si       0.38383    0.94764    0.21348    1.000
    N2344    N        0.38068    0.97534    0.17931    1.000
    N2345    N        0.36278    0.78929    0.35354    1.000
    Si2346   Si       0.35637    0.82254    0.33046    1.000
    N2347    N        0.39206    0.84616    0.31380    1.000
    Si2348   Si       0.34670    0.81411    0.25632    1.000
    N2349    N        0.36143    0.85484    0.24956    1.000
    N2350    N        0.34412    0.85132    0.36387    1.000
    Si2351   Si       0.39374    0.94434    0.27248    1.000
    Si2352   Si       0.37482    0.88916    0.31655    1.000
    N2353    N        0.39249    0.90390    0.35633    1.000
    N2354    N        0.39677    0.90304    0.28162    1.000
    N2355    N        0.36104    0.96322    0.25039    1.000
    N2356    N        0.39784    0.96310    0.30988    1.000
    Si2357   Si       0.36561    0.00732    0.25295    1.000
    Si2358   Si       0.37229    0.00708    0.37262    1.000
    N2359    N        0.39480    0.79164    0.41506    1.000
    Si2360   Si       0.37053    0.87748    0.48361    1.000
    Si2361   Si       0.35697    0.78754    0.39748    1.000
    N2362    N        0.39828    0.86828    0.40919    1.000
    Si2363   Si       0.36659    0.88276    0.38455    1.000
    N2364    N        0.37751    0.96558    0.38017    1.000
    N2365    N        0.34942    0.95872    0.45405    1.000
    Si2366   Si       0.34900    0.95157    0.41051    1.000
    Si2367   Si       0.38667    0.94909    0.47132    1.000
    N2368    N        0.39676    0.90616    0.46486    1.000
    N2369    N        0.34068    0.90930    0.40821    1.000
    N2370    N        0.36883    0.78295    0.55183    1.000
    Si2371   Si       0.37671    0.80509    0.58752    1.000
    Si2372   Si       0.37649    0.80532    0.51436    1.000
    N2373    N        0.38756    0.84693    0.51262    1.000
    N2374    N        0.38622    0.77327    0.61836    1.000
    N2375    N        0.34870    0.82755    0.61155    1.000
    N2376    N        0.38490    0.96185    0.51423    1.000
    Si2377   Si       0.36685    0.92889    0.53886    1.000
    N2378    N        0.34759    0.90294    0.50939    1.000
    N2379    N        0.38894    0.94259    0.62825    1.000
    Si2380   Si       0.37378    0.85458    0.63474    1.000
    N2381    N        0.38182    0.83009    0.67118    1.000
    Si2382   Si       0.35064    0.82038    0.70452    1.000
    N2383    N        0.37390    0.79766    0.73311    1.000
    N2384    N        0.34888    0.86368    0.71981    1.000
    Si2385   Si       0.38502    0.78700    0.65806    1.000
    N2386    N        0.34777    0.77445    0.67767    1.000
    Si2387   Si       0.37352    0.96143    0.70431    1.000
    N2388    N        0.36060    0.96566    0.74524    1.000
    Si2389   Si       0.38243    0.89052    0.71468    1.000
    N2390    N        0.36631    0.92127    0.68796    1.000
    N2391    N        0.34568    0.88588    0.62786    1.000
    Si2392   Si       0.35230    0.92427    0.64632    1.000
    N2393    N        0.34737    0.98419    0.67753    1.000
    Si2394   Si       0.37288    0.75778    0.71199    1.000
    Si2395   Si       0.37706    0.84596    0.83871    1.000
    Si2396   Si       0.36825    0.77419    0.85173    1.000
    Si2397   Si       0.39292    0.78964    0.77091    1.000
    N2398    N        0.34745    0.86679    0.81207    1.000
    N2399    N        0.39444    0.82067    0.79884    1.000
    N2400    N        0.34687    0.81303    0.84928    1.000
    Si2401   Si       0.36175    0.89880    0.78805    1.000
    N2402    N        0.37786    0.92772    0.81915    1.000
    N2403    N        0.36425    0.98401    0.85857    1.000
    Si2404   Si       0.39435    0.00039    0.83044    1.000
    N2405    N        0.39278    0.89949    0.75698    1.000
    Si2406   Si       0.38725    0.99940    0.75377    1.000
    Si2407   Si       0.34511    0.95041    0.83792    1.000
    N2408    N        0.36724    0.86177    0.87875    1.000
    N2409    N        0.35298    0.83443    0.93454    1.000
    N2410    N        0.37763    0.79284    0.98592    1.000
    Si2411   Si       0.35210    0.82275    0.89303    1.000
    N2412    N        0.36813    0.78051    0.89689    1.000
    Si2413   Si       0.38708    0.82389    0.95984    1.000
    N2414    N        0.39931    0.86047    0.97746    1.000
    N2415    N        0.38714    0.93316    0.89956    1.000
    Si2416   Si       0.35637    0.90174    0.89362    1.000
    Si2417   Si       0.37469    0.97547    0.90196    1.000
    N2418    N        0.43215    0.09798    0.05302    1.000
    Si2419   Si       0.41809    0.05391    0.05196    1.000
    N2420    N        0.41148    0.05415    0.09791    1.000
    N2421    N        0.43922    0.04473    0.00985    1.000
    N2422    N        0.40345    0.19947    0.20304    1.000
    Si2423   Si       0.45085    0.13606    0.06454    1.000
    N2424    N        0.43025    0.14859    0.10057    1.000
    N2425    N        0.43943    0.16428    0.03191    1.000
    Si2426   Si       0.41681    0.19096    0.10031    1.000
    Si2427   Si       0.44574    0.25121    0.08546    1.000
    Si2428   Si       0.41225    0.16647    0.99955    1.000
    N2429    N        0.45548    0.20999    0.08801    1.000
    Si2430   Si       0.44294    0.05029    0.12969    1.000
    Si2431   Si       0.42376    0.11951    0.13279    1.000
    N2432    N        0.43458    0.03049    0.16925    1.000
    N2433    N        0.45385    0.09159    0.14152    1.000
    N2434    N        0.45006    0.15568    0.24540    1.000
    Si2435   Si       0.41617    0.18270    0.24148    1.000
    N2436    N        0.41765    0.13963    0.17266    1.000
    N2437    N        0.41260    0.20496    0.14174    1.000
    Si2438   Si       0.42946    0.18112    0.17191    1.000
    Si2439   Si       0.41534    0.00747    0.00642    1.000
    N2440    N        0.44261    0.11746    0.31109    1.000
    Si2441   Si       0.41543    0.05973    0.36675    1.000
    N2442    N        0.40692    0.01846    0.35021    1.000
    N2443    N        0.44572    0.20745    0.33530    1.000
    Si2444   Si       0.43055    0.22943    0.30158    1.000
    N2445    N        0.45993    0.08690    0.44423    1.000
    Si2446   Si       0.41239    0.21295    0.36312    1.000
    N2447    N        0.40616    0.20494    0.27626    1.000
    N2448    N        0.45073    0.08286    0.37363    1.000
    Si2449   Si       0.42196    0.10215    0.46158    1.000
    N2450    N        0.42122    0.04102    0.40887    1.000
    N2451    N        0.42374    0.14491    0.45102    1.000
    N2452    N        0.44952    0.21192    0.40779    1.000
    N2453    N        0.45220    0.19856    0.48427    1.000
    Si2454   Si       0.42030    0.23885    0.42160    1.000
    Si2455   Si       0.40899    0.19941    0.48669    1.000
    N2456    N        0.41031    0.25223    0.38008    1.000
    Si2457   Si       0.44573    0.11095    0.60354    1.000
    N2458    N        0.40980    0.08719    0.59458    1.000
    Si2459   Si       0.40964    0.04586    0.58498    1.000
    N2460    N        0.45195    0.03285    0.58011    1.000
    N2461    N        0.40917    0.09625    0.50443    1.000
    Si2462   Si       0.45381    0.10830    0.52577    1.000
    N2463    N        0.43030    0.14764    0.53808    1.000
    N2464    N        0.42528    0.21596    0.56574    1.000
    N2465    N        0.43505    0.15466    0.60221    1.000
    Si2466   Si       0.42960    0.24750    0.53671    1.000
    Si2467   Si       0.44656    0.17649    0.56593    1.000
    Si2468   Si       0.41353    0.22958    0.60619    1.000
    N2469    N        0.42466    0.05174    0.67790    1.000
    N2470    N        0.44083    0.12579    0.71954    1.000
    N2471    N        0.44648    0.10991    0.64904    1.000
    Si2472   Si       0.40289    0.06087    0.71531    1.000
    Si2473   Si       0.40325    0.21736    0.74082    1.000
    Si2474   Si       0.43952    0.20344    0.67332    1.000
    N2475    N        0.41056    0.16829    0.66751    1.000
    N2476    N        0.44604    0.22441    0.63546    1.000
    N2477    N        0.42420    0.23070    0.70308    1.000
    Si2478   Si       0.44487    0.14171    0.67979    1.000
    N2479    N        0.44073    0.07883    0.83010    1.000
    Si2480   Si       0.43355    0.08334    0.78675    1.000
    Si2481   Si       0.42041    0.05932    0.86334    1.000
    N2482    N        0.41985    0.05656    0.75471    1.000
    N2483    N        0.40196    0.11411    0.78024    1.000
    N2484    N        0.40798    0.13293    0.86116    1.000
    N2485    N        0.42930    0.19583    0.84641    1.000
    N2486    N        0.43194    0.23426    0.77028    1.000
    Si2487   Si       0.44421    0.15730    0.86011    1.000
    N2488    N        0.44725    0.17013    0.77612    1.000
    Si2489   Si       0.42053    0.14588    0.75211    1.000
    N2490    N        0.44929    0.02845    0.87477    1.000
    N2491    N        0.43570    0.17901    0.96586    1.000
    Si2492   Si       0.41992    0.17247    0.92749    1.000
    N2493    N        0.45493    0.16307    0.90262    1.000
    N2494    N        0.45778    0.03722    0.94144    1.000
    Si2495   Si       0.41156    0.25884    0.79958    1.000
    N2496    N        0.42957    0.33398    0.06988    1.000
    Si2497   Si       0.44347    0.37459    0.08583    1.000
    Si2498   Si       0.42119    0.33992    0.02629    1.000
    N2499    N        0.40969    0.38126    0.01372    1.000
    N2500    N        0.40601    0.26552    0.08823    1.000
    N2501    N        0.45715    0.27376    0.04897    1.000
    N2502    N        0.44715    0.44605    0.01246    1.000
    Si2503   Si       0.44684    0.40254    0.01567    1.000
    N2504    N        0.43796    0.45562    0.08714    1.000
    Si2505   Si       0.44652    0.47283    0.04855    1.000
    N2506    N        0.41109    0.49169    0.02996    1.000
    Si2507   Si       0.42248    0.38975    0.21498    1.000
    Si2508   Si       0.44204    0.29497    0.14746    1.000
    N2509    N        0.42758    0.29858    0.23321    1.000
    N2510    N        0.43621    0.37380    0.18068    1.000
    N2511    N        0.40372    0.31213    0.13736    1.000
    Si2512   Si       0.45740    0.28370    0.20580    1.000
    N2513    N        0.43538    0.26129    0.17437    1.000
    N2514    N        0.42876    0.48940    0.19340    1.000
    N2515    N        0.41029    0.44627    0.14084    1.000
    Si2516   Si       0.45417    0.45226    0.12856    1.000
    N2517    N        0.45084    0.38885    0.24624    1.000
    Si2518   Si       0.42860    0.48724    0.23728    1.000
    Si2519   Si       0.42989    0.36840    0.27660    1.000
    N2520    N        0.44287    0.32835    0.29074    1.000
    Si2521   Si       0.42646    0.28839    0.27668    1.000
    Si2522   Si       0.41899    0.28658    0.35427    1.000
    N2523    N        0.41363    0.26648    0.31636    1.000
    N2524    N        0.45545    0.31018    0.35600    1.000
    Si2525   Si       0.41909    0.43425    0.28953    1.000
    N2526    N        0.43265    0.39743    0.30905    1.000
    N2527    N        0.44669    0.45346    0.26112    1.000
    Si2528   Si       0.41077    0.49633    0.34146    1.000
    N2529    N        0.44236    0.49245    0.36902    1.000
    N2530    N        0.42808    0.27667    0.44256    1.000
    N2531    N        0.41444    0.34772    0.43511    1.000
    Si2532   Si       0.45570    0.35950    0.43757    1.000
    Si2533   Si       0.45170    0.42271    0.48875    1.000
    Si2534   Si       0.40503    0.44517    0.43601    1.000
    Si2535   Si       0.43762    0.49672    0.41168    1.000
    N2536    N        0.44580    0.44700    0.41981    1.000
    N2537    N        0.41071    0.43140    0.47794    1.000
    N2538    N        0.45634    0.25390    0.27689    1.000
    Si2539   Si       0.42536    0.29698    0.58563    1.000
    N2540    N        0.42087    0.28830    0.54333    1.000
    Si2541   Si       0.42366    0.31340    0.50917    1.000
    N2542    N        0.43688    0.33693    0.59220    1.000
    N2543    N        0.41256    0.35598    0.51629    1.000
    Si2544   Si       0.40959    0.36683    0.60854    1.000
    Si2545   Si       0.43442    0.38107    0.54396    1.000
    Si2546   Si       0.42502    0.49962    0.54222    1.000
    N2547    N        0.44794    0.42085    0.53104    1.000
    N2548    N        0.40898    0.39637    0.57459    1.000
    N2549    N        0.41423    0.47897    0.61770    1.000
    Si2550   Si       0.40841    0.44433    0.58993    1.000
    N2551    N        0.45589    0.43501    0.59740    1.000
    Si2552   Si       0.42673    0.37387    0.67852    1.000
    Si2553   Si       0.41977    0.27387    0.69406    1.000
    N2554    N        0.44063    0.29768    0.72481    1.000
    N2555    N        0.45265    0.28366    0.66400    1.000
    Si2556   Si       0.42685    0.44874    0.70414    1.000
    Si2557   Si       0.45459    0.46684    0.63057    1.000
    N2558    N        0.41951    0.40578    0.70759    1.000
    N2559    N        0.44930    0.46261    0.74099    1.000
    N2560    N        0.45795    0.45587    0.67264    1.000
    N2561    N        0.43239    0.38657    0.63771    1.000
    N2562    N        0.40242    0.46500    0.55175    1.000
    N2563    N        0.42784    0.50480    0.49705    1.000
    Si2564   Si       0.42858    0.31682    0.76224    1.000
    N2565    N        0.44272    0.33280    0.85834    1.000
    N2566    N        0.44358    0.26423    0.82755    1.000
    Si2567   Si       0.40955    0.35473    0.84478    1.000
    N2568    N        0.40338    0.34999    0.75544    1.000
    N2569    N        0.40547    0.45287    0.86693    1.000
    N2570    N        0.44514    0.39499    0.89589    1.000
    N2571    N        0.42136    0.39491    0.83316    1.000
    Si2572   Si       0.42969    0.49549    0.76126    1.000
    Si2573   Si       0.43670    0.42273    0.86404    1.000
    N2574    N        0.46030    0.33606    0.93543    1.000
    N2575    N        0.43690    0.28157    0.98276    1.000
    N2576    N        0.44307    0.26797    0.91394    1.000
    Si2577   Si       0.43362    0.30049    0.94258    1.000
    N2578    N        0.41780    0.48873    0.95780    1.000
    Si2579   Si       0.45533    0.49745    0.93960    1.000
    N2580    N        0.45250    0.48848    0.89796    1.000
    Si2581   Si       0.40940    0.46461    0.99516    1.000
    Si2582   Si       0.41282    0.49214    0.88076    1.000
    N2583    N        0.45942    0.39308    0.76268    1.000
    Si2584   Si       0.41609    0.38940    0.74735    1.000
    N2585    N        0.44681    0.55278    0.03062    1.000
    N2586    N        0.41493    0.61179    0.02001    1.000
    Si2587   Si       0.42195    0.55985    0.10283    1.000
    N2588    N        0.45030    0.58960    0.08801    1.000
    Si2589   Si       0.43342    0.62269    0.11480    1.000
    Si2590   Si       0.40776    0.53523    0.03627    1.000
    Si2591   Si       0.44760    0.59475    0.04346    1.000
    N2592    N        0.42695    0.65429    0.08689    1.000
    N2593    N        0.42845    0.70757    0.04111    1.000
    N2594    N        0.44482    0.71306    0.11231    1.000
    Si2595   Si       0.44939    0.69043    0.07578    1.000
    Si2596   Si       0.44479    0.71023    0.00111    1.000
    N2597    N        0.41300    0.56559    0.20249    1.000
    N2598    N        0.42498    0.53735    0.13967    1.000
    Si2599   Si       0.45231    0.55605    0.22177    1.000
    Si2600   Si       0.45077    0.51456    0.16523    1.000
    N2601    N        0.45884    0.63127    0.14600    1.000
    Si2602   Si       0.40557    0.72216    0.12433    1.000
    N2603    N        0.42135    0.74660    0.20375    1.000
    Si2604   Si       0.44359    0.70787    0.21107    1.000
    N2605    N        0.40325    0.68908    0.22022    1.000
    N2606    N        0.43295    0.60346    0.29643    1.000
    N2607    N        0.42402    0.52445    0.30942    1.000
    Si2608   Si       0.41199    0.56601    0.30462    1.000
    Si2609   Si       0.40564    0.61457    0.35895    1.000
    N2610    N        0.45135    0.52232    0.25060    1.000
    N2611    N        0.40659    0.57181    0.34814    1.000
    N2612    N        0.44609    0.62192    0.37209    1.000
    Si2613   Si       0.41486    0.64406    0.29566    1.000
    N2614    N        0.43098    0.68522    0.29485    1.000
    N2615    N        0.41935    0.74896    0.28411    1.000
    N2616    N        0.43193    0.56922    0.47217    1.000
    Si2617   Si       0.42013    0.61139    0.47508    1.000
    N2618    N        0.42348    0.54105    0.40790    1.000
    Si2619   Si       0.45295    0.55534    0.43600    1.000
    N2620    N        0.41712    0.62676    0.43372    1.000
    Si2621   Si       0.45518    0.62700    0.41360    1.000
    N2622    N        0.43775    0.64953    0.49157    1.000
    N2623    N        0.43969    0.74059    0.39173    1.000
    Si2624   Si       0.41656    0.75439    0.42572    1.000
    N2625    N        0.45230    0.75059    0.45456    1.000
    N2626    N        0.42223    0.54158    0.54855    1.000
    Si2627   Si       0.44500    0.58022    0.56897    1.000
    Si2628   Si       0.44588    0.55335    0.50926    1.000
    N2629    N        0.45260    0.61881    0.59137    1.000
    Si2630   Si       0.41707    0.60886    0.61761    1.000
    N2631    N        0.41623    0.65733    0.73526    1.000
    N2632    N        0.41464    0.70929    0.51200    1.000
    Si2633   Si       0.44786    0.71342    0.60101    1.000
    Si2634   Si       0.45625    0.70980    0.52225    1.000
    N2635    N        0.45716    0.69380    0.56258    1.000
    N2636    N        0.40411    0.70918    0.60394    1.000
    N2637    N        0.43588    0.58057    0.64652    1.000
    Si2638   Si       0.41568    0.56067    0.73501    1.000
    N2639    N        0.40503    0.52025    0.73272    1.000
    Si2640   Si       0.44254    0.73822    0.66751    1.000
    N2641    N        0.42197    0.64604    0.64326    1.000
    N2642    N        0.45651    0.74774    0.62784    1.000
    Si2643   Si       0.40449    0.68622    0.70608    1.000
    Si2644   Si       0.45980    0.66698    0.65749    1.000
    N2645    N        0.43794    0.69743    0.67919    1.000
    Si2646   Si       0.40069    0.66666    0.51058    1.000
    N2647    N        0.42426    0.58731    0.76979    1.000
    Si2648   Si       0.44488    0.59870    0.85480    1.000
    N2649    N        0.45234    0.52257    0.78799    1.000
    N2650    N        0.41954    0.52114    0.84674    1.000
    N2651    N        0.40346    0.59178    0.84467    1.000
    Si2652   Si       0.43279    0.63217    0.76468    1.000
    Si2653   Si       0.45828    0.53070    0.83022    1.000
    N2654    N        0.40879    0.63820    0.80171    1.000
    Si2655   Si       0.43154    0.73073    0.83271    1.000
    N2656    N        0.40899    0.70564    0.80598    1.000
    N2657    N        0.45717    0.64229    0.85151    1.000
    N2658    N        0.44995    0.71034    0.86668    1.000
    Si2659   Si       0.44047    0.57120    0.93347    1.000
    Si2660   Si       0.44826    0.63079    0.99473    1.000
    N2661    N        0.45423    0.60551    0.95772    1.000
    N2662    N        0.45700    0.59167    0.89620    1.000
    N2663    N        0.41921    0.74355    0.98358    1.000
    N2664    N        0.42438    0.67017    0.91688    1.000
    N2665    N        0.44809    0.67185    0.98134    1.000
    Si2666   Si       0.46140    0.68032    0.93992    1.000
    Si2667   Si       0.43542    0.67165    0.87544    1.000
    N2668    N        0.43723    0.80340    0.01498    1.000
    Si2669   Si       0.41323    0.78551    0.09757    1.000
    N2670    N        0.42932    0.87394    0.03996    1.000
    N2671    N        0.45439    0.79663    0.09034    1.000
    Si2672   Si       0.45571    0.84703    0.01728    1.000
    N2673    N        0.41275    0.93855    0.07368    1.000
    Si2674   Si       0.44340    0.91141    0.05483    1.000
    Si2675   Si       0.42841    0.92611    0.11437    1.000
    N2676    N        0.45179    0.94879    0.14247    1.000
    N2677    N        0.42083    0.95189    0.23648    1.000
    Si2678   Si       0.40836    0.87813    0.18915    1.000
    Si2679   Si       0.45770    0.83675    0.24205    1.000
    N2680    N        0.43096    0.81627    0.16675    1.000
    Si2681   Si       0.43539    0.77368    0.16977    1.000
    N2682    N        0.42143    0.85591    0.22336    1.000
    Si2683   Si       0.41531    0.76791    0.24261    1.000
    N2684    N        0.44673    0.88245    0.16600    1.000
    N2685    N        0.41201    0.00832    0.05003    1.000
    N2686    N        0.41017    0.76368    0.13458    1.000
    Si2687   Si       0.43811    0.84564    0.32319    1.000
    N2688    N        0.44900    0.86100    0.27730    1.000
    Si2689   Si       0.45313    0.77610    0.29076    1.000
    N2690    N        0.44876    0.79508    0.25033    1.000
    N2691    N        0.43439    0.83723    0.37097    1.000
    Si2692   Si       0.40324    0.86336    0.26437    1.000
    N2693    N        0.45656    0.80615    0.32071    1.000
    N2694    N        0.45245    0.88465    0.33637    1.000
    N2695    N        0.44763    0.95311    0.35140    1.000
    N2696    N        0.44902    0.00400    0.29275    1.000
    Si2697   Si       0.40937    0.00593    0.31002    1.000
    Si2698   Si       0.40341    0.94739    0.35054    1.000
    Si2699   Si       0.42833    0.88165    0.37432    1.000
    Si2700   Si       0.44716    0.77512    0.49210    1.000
    N2701    N        0.44015    0.84066    0.44648    1.000
    Si2702   Si       0.42136    0.82536    0.41046    1.000
    N2703    N        0.40482    0.77928    0.49291    1.000
    N2704    N        0.44601    0.90729    0.40427    1.000
    Si2705   Si       0.42870    0.88268    0.44149    1.000
    N2706    N        0.42308    0.96964    0.45692    1.000
    Si2707   Si       0.43584    0.00840    0.47330    1.000
    Si2708   Si       0.44027    0.84589    0.60944    1.000
    Si2709   Si       0.41020    0.86355    0.54657    1.000
    N2710    N        0.45208    0.86238    0.53558    1.000
    N2711    N        0.40849    0.83492    0.57950    1.000
    Si2712   Si       0.43052    0.92994    0.56608    1.000
    N2713    N        0.44644    0.00121    0.51592    1.000
    N2714    N        0.41356    0.97153    0.57155    1.000
    N2715    N        0.44819    0.92328    0.60357    1.000
    Si2716   Si       0.40621    0.99420    0.53524    1.000
    Si2717   Si       0.40001    0.98255    0.61306    1.000
    N2718    N        0.44656    0.82086    0.70674    1.000
    Si2719   Si       0.42389    0.84341    0.67313    1.000
    N2720    N        0.44240    0.81456    0.63975    1.000
    N2721    N        0.41471    0.87209    0.63623    1.000
    Si2722   Si       0.44087    0.77971    0.71719    1.000
    N2723    N        0.40993    0.76351    0.68589    1.000
    N2724    N        0.42324    0.88037    0.70071    1.000
    Si2725   Si       0.42297    0.91443    0.63627    1.000
    N2726    N        0.41316    0.97318    0.69639    1.000
    Si2727   Si       0.44735    0.97021    0.72522    1.000
    N2728    N        0.43481    0.99648    0.63626    1.000
    N2729    N        0.39744    0.90505    0.55512    1.000
    Si2730   Si       0.43186    0.00801    0.67820    1.000
    Si2731   Si       0.43070    0.84378    0.80223    1.000
    Si2732   Si       0.44476    0.78941    0.84609    1.000
    N2733    N        0.41357    0.87282    0.83040    1.000
    N2734    N        0.44699    0.86496    0.76763    1.000
    N2735    N        0.43270    0.77817    0.75981    1.000
    N2736    N        0.40773    0.76455    0.84401    1.000
    Si2737   Si       0.44016    0.86850    0.86967    1.000
    N2738    N        0.42983    0.82501    0.86790    1.000
    N2739    N        0.44482    0.92530    0.80130    1.000
    N2740    N        0.43191    0.97918    0.83365    1.000
    N2741    N        0.42775    0.98196    0.76139    1.000
    Si2742   Si       0.41701    0.91784    0.83400    1.000
    Si2743   Si       0.43394    0.90604    0.76467    1.000
    Si2744   Si       0.45099    0.96727    0.79630    1.000
    N2745    N        0.44366    0.91466    0.86954    1.000
    Si2746   Si       0.45555    0.98631    0.86931    1.000
    N2747    N        0.42343    0.80438    0.94277    1.000
    Si2748   Si       0.44698    0.81673    0.90718    1.000
    Si2749   Si       0.43714    0.78264    0.97625    1.000
    N2750    N        0.44149    0.86233    0.91519    1.000
    Si2751   Si       0.43490    0.87683    0.95469    1.000
    Si2752   Si       0.42897    0.93082    0.90809    1.000
    N2753    N        0.43794    0.98311    0.97888    1.000
    Si2754   Si       0.43403    0.00097    0.93817    1.000
    Si2755   Si       0.45766    0.94504    0.97828    1.000
    N2756    N        0.43705    0.91956    0.94967    1.000
    N2757    N        0.44237    0.97199    0.90790    1.000
    N2758    N        0.49845    0.07721    0.09252    1.000
    N2759    N        0.47340    0.02070    0.11696    1.000
    Si2760   Si       0.50900    0.04741    0.11925    1.000
    N2761    N        0.50535    0.04647    0.99585    1.000
    N2762    N        0.51262    0.18342    0.23737    1.000
    N2763    N        0.49104    0.14909    0.07232    1.000
    Si2764   Si       0.49496    0.19294    0.08133    1.000
    Si2765   Si       0.51683    0.21175    0.01137    1.000
    N2766    N        0.50795    0.24793    0.15953    1.000
    Si2767   Si       0.48226    0.16199    0.21388    1.000
    N2768    N        0.50484    0.05990    0.16357    1.000
    Si2769   Si       0.47596    0.03103    0.18653    1.000
    Si2770   Si       0.49523    0.08742    0.22910    1.000
    Si2771   Si       0.49154    0.10170    0.16130    1.000
    N2772    N        0.47328    0.04885    0.22646    1.000
    N2773    N        0.48690    0.11977    0.20059    1.000
    N2774    N        0.47153    0.18801    0.18131    1.000
    Si2775   Si       0.50504    0.20340    0.15736    1.000
    N2776    N        0.49246    0.10389    0.26965    1.000
    N2777    N        0.50696    0.09360    0.33895    1.000
    Si2778   Si       0.47678    0.01934    0.26039    1.000
    N2779    N        0.50983    0.03948    0.28142    1.000
    Si2780   Si       0.46707    0.11160    0.34759    1.000
    Si2781   Si       0.51355    0.07932    0.29744    1.000
    Si2782   Si       0.46653    0.13760    0.28064    1.000
    N2783    N        0.49349    0.16783    0.29950    1.000
    Si2784   Si       0.48159    0.18284    0.33857    1.000
    N2785    N        0.50816    0.19738    0.36997    1.000
    N2786    N        0.46857    0.15063    0.36561    1.000
    Si2787   Si       0.46163    0.16036    0.46712    1.000
    N2788    N        0.47284    0.02455    0.45957    1.000
    N2789    N        0.49619    0.03010    0.39856    1.000
    Si2790   Si       0.48657    0.06516    0.47351    1.000
    Si2791   Si       0.46326    0.05804    0.41005    1.000
    Si2792   Si       0.47631    0.18105    0.39850    1.000
    N2793    N        0.47808    0.13067    0.49502    1.000
    Si2794   Si       0.48652    0.22552    0.49359    1.000
    N2795    N        0.49670    0.25404    0.46206    1.000
    N2796    N        0.49122    0.16464    0.43469    1.000
    N2797    N        0.47098    0.10856    0.56779    1.000
    Si2798   Si       0.46900    0.02970    0.53986    1.000
    N2799    N        0.46869    0.06574    0.51423    1.000
    Si2800   Si       0.47113    0.01277    0.61527    1.000
    Si2801   Si       0.50593    0.13439    0.56734    1.000
    N2802    N        0.49013    0.17615    0.56333    1.000
    N2803    N        0.47237    0.24929    0.52967    1.000
    N2804    N        0.48238    0.04716    0.63911    1.000
    N2805    N        0.48525    0.07324    0.70231    1.000
    Si2806   Si       0.47572    0.10491    0.73114    1.000
    Si2807   Si       0.49883    0.03399    0.71224    1.000
    Si2808   Si       0.45981    0.07245    0.66698    1.000
    N2809    N        0.47036    0.17642    0.68483    1.000
    N2810    N        0.49766    0.20824    0.74175    1.000
    N2811    N        0.50640    0.13406    0.73177    1.000
    Si2812   Si       0.50250    0.17322    0.71337    1.000
    Si2813   Si       0.47920    0.09254    0.84754    1.000
    N2814    N        0.47385    0.09218    0.77302    1.000
    N2815    N        0.50571    0.06509    0.82510    1.000
    Si2816   Si       0.50832    0.06571    0.78074    1.000
    N2817    N        0.51106    0.03084    0.75491    1.000
    N2818    N        0.47673    0.13527    0.83711    1.000
    N2819    N        0.48639    0.20723    0.81168    1.000
    Si2820   Si       0.46636    0.20780    0.77237    1.000
    Si2821   Si       0.50403    0.16853    0.82458    1.000
    N2822    N        0.49166    0.24060    0.87079    1.000
    Si2823   Si       0.46072    0.22583    0.84177    1.000
    N2824    N        0.52029    0.17588    0.86797    1.000
    N2825    N        0.48378    0.08702    0.89124    1.000
    Si2826   Si       0.47551    0.04461    0.90536    1.000
    Si2827   Si       0.49795    0.10461    0.93108    1.000
    N2828    N        0.47468    0.09694    0.96636    1.000
    Si2829   Si       0.46711    0.05601    0.97865    1.000
    N2830    N        0.51181    0.02287    0.89994    1.000
    N2831    N        0.47915    0.23025    0.99586    1.000
    N2832    N        0.51706    0.14533    0.92874    1.000
    N2833    N        0.49060    0.21151    0.93022    1.000
    Si2834   Si       0.47502    0.19640    0.96718    1.000
    Si2835   Si       0.49861    0.17658    0.90489    1.000
    Si2836   Si       0.48071    0.24960    0.91210    1.000
    N2837    N        0.50660    0.17582    0.99064    1.000
    N2838    N        0.50005    0.32670    0.06811    1.000
    Si2839   Si       0.47152    0.27225    0.00891    1.000
    Si2840   Si       0.50738    0.35046    0.10485    1.000
    N2841    N        0.51124    0.29194    0.01047    1.000
    Si2842   Si       0.50326    0.33428    0.02610    1.000
    N2843    N        0.46808    0.35973    0.11789    1.000
    N2844    N        0.46580    0.28161    0.11170    1.000
    N2845    N        0.46191    0.34110    0.00829    1.000
    Si2846   Si       0.46294    0.30828    0.07642    1.000
    N2847    N        0.51503    0.41777    0.23248    1.000
    N2848    N        0.48298    0.49626    0.04305    1.000
    Si2849   Si       0.50466    0.40927    0.04691    1.000
    N2850    N        0.51749    0.44144    0.01707    1.000
    N2851    N        0.50981    0.43826    0.07879    1.000
    Si2852   Si       0.51953    0.42358    0.11865    1.000
    Si2853   Si       0.50638    0.27641    0.12570    1.000
    Si2854   Si       0.51382    0.32787    0.16949    1.000
    N2855    N        0.50706    0.37115    0.17530    1.000
    N2856    N        0.47364    0.31018    0.17579    1.000
    N2857    N        0.49591    0.26879    0.22728    1.000
    Si2858   Si       0.47030    0.38040    0.15638    1.000
    N2859    N        0.47886    0.41974    0.13669    1.000
    Si2860   Si       0.51982    0.48989    0.13767    1.000
    N2861    N        0.47604    0.48861    0.14381    1.000
    N2862    N        0.46484    0.39579    0.05500    1.000
    N2863    N        0.48771    0.36132    0.33465    1.000
    N2864    N        0.50647    0.29758    0.29783    1.000
    Si2865   Si       0.47595    0.32094    0.31811    1.000
    N2866    N        0.47600    0.43041    0.35611    1.000
    Si2867   Si       0.47913    0.47354    0.35738    1.000
    N2868    N        0.49411    0.41615    0.29294    1.000
    N2869    N        0.48826    0.49033    0.31641    1.000
    Si2870   Si       0.47189    0.40015    0.32622    1.000
    Si2871   Si       0.47521    0.42285    0.25307    1.000
    Si2872   Si       0.47917    0.33901    0.38123    1.000
    N2873    N        0.47714    0.32095    0.42405    1.000
    Si2874   Si       0.46932    0.29004    0.45466    1.000
    N2875    N        0.46230    0.31509    0.48989    1.000
    N2876    N        0.46272    0.37746    0.39882    1.000
    N2877    N        0.46687    0.38278    0.47420    1.000
    N2878    N        0.50736    0.48755    0.38788    1.000
    Si2879   Si       0.51003    0.50719    0.42643    1.000
    Si2880   Si       0.51504    0.44264    0.46160    1.000
    Si2881   Si       0.47342    0.41896    0.39994    1.000
    Si2882   Si       0.46877    0.49728    0.48237    1.000
    N2883    N        0.51069    0.42204    0.42379    1.000
    N2884    N        0.47776    0.45592    0.48184    1.000
    Si2885   Si       0.49813    0.26090    0.27130    1.000
    Si2886   Si       0.48194    0.33874    0.57951    1.000
    N2887    N        0.49698    0.36534    0.61043    1.000
    Si2888   Si       0.49091    0.26896    0.56359    1.000
    N2889    N        0.47230    0.36276    0.54319    1.000
    N2890    N        0.50747    0.31138    0.55937    1.000
    Si2891   Si       0.48382    0.35297    0.50267    1.000
    N2892    N        0.46187    0.27369    0.59593    1.000
    Si2893   Si       0.47284    0.44446    0.55760    1.000
    N2894    N        0.48968    0.48894    0.61782    1.000
    N2895    N        0.51379    0.43966    0.54983    1.000
    N2896    N        0.46415    0.48625    0.55493    1.000
    Si2897   Si       0.47094    0.40021    0.62152    1.000
    N2898    N        0.46445    0.35438    0.69359    1.000
    Si2899   Si       0.47158    0.31104    0.69519    1.000
    Si2900   Si       0.49875    0.37413    0.70791    1.000
    N2901    N        0.51402    0.29961    0.70196    1.000
    Si2902   Si       0.47390    0.25828    0.63475    1.000
    N2903    N        0.51149    0.35046    0.74547    1.000
    N2904    N        0.51585    0.25931    0.64253    1.000
    Si2905   Si       0.51380    0.50381    0.64781    1.000
    N2906    N        0.49555    0.41667    0.71545    1.000
    N2907    N        0.50329    0.41808    0.64409    1.000
    Si2908   Si       0.49819    0.44241    0.68091    1.000
    Si2909   Si       0.48340    0.36068    0.77854    1.000
    N2910    N        0.50649    0.30732    0.83404    1.000
    N2911    N        0.50142    0.37450    0.81477    1.000
    Si2912   Si       0.46277    0.30400    0.82874    1.000
    Si2913   Si       0.48410    0.44094    0.98871    1.000
    Si2914   Si       0.47744    0.43014    0.75243    1.000
    Si2915   Si       0.50491    0.41720    0.82343    1.000
    N2916    N        0.50556    0.44087    0.78637    1.000
    N2917    N        0.47552    0.43724    0.84986    1.000
    Si2918   Si       0.48591    0.47341    0.87231    1.000
    Si2919   Si       0.45812    0.35409    0.89532    1.000
    N2920    N        0.50082    0.35198    0.88777    1.000
    Si2921   Si       0.47878    0.35845    0.97010    1.000
    N2922    N        0.50928    0.28375    0.91008    1.000
    Si2923   Si       0.51297    0.32610    0.92015    1.000
    N2924    N        0.48588    0.47178    0.95740    1.000
    N2925    N        0.47366    0.39937    0.98195    1.000
    N2926    N        0.51915    0.34531    0.96203    1.000
    N2927    N        0.51848    0.46109    0.89866    1.000
    N2928    N        0.46203    0.32432    0.79024    1.000
    Si2929   Si       0.48731    0.53678    0.02840    1.000
    N2930    N        0.47760    0.62062    0.02629    1.000
    N2931    N        0.50679    0.55920    0.06033    1.000
    Si2932   Si       0.49525    0.59157    0.08751    1.000
    N2933    N        0.52008    0.62568    0.07884    1.000
    Si2934   Si       0.50738    0.64999    0.04360    1.000
    N2935    N        0.49019    0.68713    0.05875    1.000
    Si2936   Si       0.50746    0.72224    0.03728    1.000
    N2937    N        0.48751    0.72325    0.99738    1.000
    N2938    N        0.52188    0.71803    0.13016    1.000
    N2939    N        0.50874    0.56878    0.12283    1.000
    N2940    N        0.47468    0.54369    0.18650    1.000
    Si2941   Si       0.50744    0.60863    0.22271    1.000
    Si2942   Si       0.51062    0.55853    0.16561    1.000
    N2943    N        0.47762    0.58563    0.24241    1.000
    N2944    N        0.47142    0.70708    0.24227    1.000
    Si2945   Si       0.48267    0.65657    0.17197    1.000
    Si2946   Si       0.50230    0.67726    0.24497    1.000
    N2947    N        0.48909    0.64656    0.21556    1.000
    N2948    N        0.46827    0.69746    0.17638    1.000
    Si2949   Si       0.47992    0.72100    0.14110    1.000
    Si2950   Si       0.48516    0.62224    0.34996    1.000
    N2951    N        0.48355    0.55540    0.30457    1.000
    N2952    N        0.49938    0.61877    0.30969    1.000
    Si2953   Si       0.47484    0.59349    0.28453    1.000
    N2954    N        0.50559    0.58678    0.36746    1.000
    Si2955   Si       0.46414    0.51739    0.29249    1.000
    N2956    N        0.50340    0.68273    0.28898    1.000
    N2957    N        0.48216    0.74479    0.30090    1.000
    Si2958   Si       0.46708    0.70663    0.28609    1.000
    N2959    N        0.50973    0.65350    0.36655    1.000
    Si2960   Si       0.51606    0.75186    0.32706    1.000
    N2961    N        0.47626    0.58980    0.42570    1.000
    Si2962   Si       0.51560    0.58608    0.40889    1.000
    N2963    N        0.50794    0.62948    0.48608    1.000
    N2964    N        0.48413    0.65607    0.42830    1.000
    Si2965   Si       0.49235    0.73379    0.46035    1.000
    N2966    N        0.50815    0.73629    0.41850    1.000
    Si2967   Si       0.47735    0.66003    0.47372    1.000
    N2968    N        0.48258    0.70016    0.48797    1.000
    Si2969   Si       0.51529    0.56341    0.33183    1.000
    N2970    N        0.46872    0.51129    0.44085    1.000
    Si2971   Si       0.49718    0.61190    0.52611    1.000
    Si2972   Si       0.48410    0.51295    0.58190    1.000
    N2973    N        0.46734    0.55088    0.59301    1.000
    N2974    N        0.48671    0.53158    0.50403    1.000
    N2975    N        0.46089    0.59051    0.52873    1.000
    Si2976   Si       0.47188    0.65581    0.58083    1.000
    N2977    N        0.50491    0.64242    0.55777    1.000
    N2978    N        0.51164    0.74305    0.59325    1.000
    N2979    N        0.47663    0.68186    0.61716    1.000
    Si2980   Si       0.51287    0.70766    0.61747    1.000
    N2981    N        0.46265    0.75196    0.52670    1.000
    N2982    N        0.50798    0.59371    0.63270    1.000
    Si2983   Si       0.49249    0.54937    0.70373    1.000
    Si2984   Si       0.47450    0.56529    0.63343    1.000
    N2985    N        0.48557    0.53465    0.66318    1.000
    N2986    N        0.50574    0.58899    0.70304    1.000
    Si2987   Si       0.50716    0.60721    0.74168    1.000
    N2988    N        0.45834    0.55428    0.72956    1.000
    N2989    N        0.49869    0.65190    0.67206    1.000
    N2990    N        0.50720    0.69798    0.72605    1.000
    N2991    N        0.51436    0.71797    0.65958    1.000
    Si2992   Si       0.51813    0.61408    0.67077    1.000
    N2993    N        0.47066    0.75757    0.69526    1.000
    N2994    N        0.50672    0.57370    0.77142    1.000
    Si2995   Si       0.50959    0.58811    0.81352    1.000
    N2996    N        0.46833    0.57422    0.82420    1.000
    Si2997   Si       0.46152    0.56360    0.77536    1.000
    N2998    N        0.47544    0.63287    0.75798    1.000
    N2999    N        0.46696    0.75592    0.82134    1.000
    Si3000   Si       0.49691    0.72842    0.80784    1.000
    N3001    N        0.49210    0.68520    0.79669    1.000
    Si3002   Si       0.49120    0.65916    0.83210    1.000
    Si3003   Si       0.50341    0.66610    0.75795    1.000
    N3004    N        0.49880    0.75110    0.76971    1.000
    N3005    N        0.51267    0.68619    0.86074    1.000
    Si3006   Si       0.50864    0.54871    0.95070    1.000
    Si3007   Si       0.48243    0.61262    0.92534    1.000
    N3008    N        0.46817    0.53891    0.94153    1.000
    N3009    N        0.51606    0.53957    0.99320    1.000
    N3010    N        0.51644    0.58868    0.93558    1.000
    N3011    N        0.51617    0.74690    0.88652    1.000
    Si3012   Si       0.49626    0.74546    0.96130    1.000
    N3013    N        0.47369    0.72146    0.93237    1.000
    N3014    N        0.49336    0.65477    0.92416    1.000
    Si3015   Si       0.47432    0.73436    0.89256    1.000
    N3016    N        0.49228    0.50881    0.84616    1.000
    N3017    N        0.48989    0.83180    0.04054    1.000
    Si3018   Si       0.46621    0.79435    0.04849    1.000
    Si3019   Si       0.50345    0.92122    0.10797    1.000
    N3020    N        0.51134    0.96441    0.10897    1.000
    N3021    N        0.46425    0.90945    0.09311    1.000
    Si3022   Si       0.48443    0.79179    0.12175    1.000
    N3023    N        0.49619    0.82702    0.14507    1.000
    N3024    N        0.48699    0.84208    0.20937    1.000
    Si3025   Si       0.46487    0.84268    0.17089    1.000
    N3026    N        0.47316    0.76365    0.15133    1.000
    Si3027   Si       0.51497    0.97858    0.20653    1.000
    Si3028   Si       0.47091    0.91810    0.16878    1.000
    Si3029   Si       0.46284    0.94466    0.24153    1.000
    N3030    N        0.48163    0.92291    0.20933    1.000
    N3031    N        0.49322    0.99324    0.17432    1.000
    N3032    N        0.48671    0.98195    0.23976    1.000
    Si3033   Si       0.48174    0.98210    0.13450    1.000
    N3034    N        0.50834    0.90775    0.15080    1.000
    N3035    N        0.46050    0.92982    0.02016    1.000
    N3036    N        0.49477    0.76243    0.04773    1.000
    N3037    N        0.50484    0.77802    0.36351    1.000
    Si3038   Si       0.47296    0.81219    0.36455    1.000
    N3039    N        0.50599    0.84277    0.36934    1.000
    N3040    N        0.51268    0.88625    0.31156    1.000
    N3041    N        0.50736    0.97790    0.32495    1.000
    Si3042   Si       0.47022    0.89251    0.29891    1.000
    Si3043   Si       0.46622    0.96642    0.31307    1.000
    N3044    N        0.46506    0.93306    0.28429    1.000
    N3045    N        0.50682    0.92045    0.36830    1.000
    N3046    N        0.48199    0.80140    0.48378    1.000
    Si3047   Si       0.47840    0.82072    0.44489    1.000
    N3048    N        0.46724    0.79933    0.40928    1.000
    N3049    N        0.51024    0.85059    0.45106    1.000
    Si3050   Si       0.46040    0.94446    0.45194    1.000
    Si3051   Si       0.49405    0.00086    0.43186    1.000
    N3052    N        0.48905    0.95962    0.48163    1.000
    N3053    N        0.47742    0.96388    0.41691    1.000
    Si3054   Si       0.50450    0.89065    0.46446    1.000
    Si3055   Si       0.47057    0.93668    0.38331    1.000
    N3056    N        0.46230    0.90065    0.46967    1.000
    Si3057   Si       0.52010    0.88126    0.35581    1.000
    Si3058   Si       0.47895    0.75853    0.39618    1.000
    N3059    N        0.48037    0.85775    0.59781    1.000
    Si3060   Si       0.47737    0.83745    0.55879    1.000
    N3061    N        0.47180    0.79757    0.57953    1.000
    N3062    N        0.51199    0.83136    0.53479    1.000
    Si3063   Si       0.48964    0.76503    0.55887    1.000
    Si3064   Si       0.51652    0.87756    0.60939    1.000
    Si3065   Si       0.47267    0.78788    0.62292    1.000
    N3066    N        0.51234    0.89171    0.50646    1.000
    N3067    N        0.50348    0.00053    0.54103    1.000
    Si3068   Si       0.47637    0.96925    0.52048    1.000
    Si3069   Si       0.46798    0.89659    0.51384    1.000
    N3070    N        0.49586    0.97919    0.62079    1.000
    N3071    N        0.45861    0.93325    0.53471    1.000
    Si3072   Si       0.46874    0.84536    0.73398    1.000
    N3073    N        0.49212    0.87736    0.71350    1.000
    N3074    N        0.50911    0.78938    0.64463    1.000
    Si3075   Si       0.50872    0.75756    0.67416    1.000
    Si3076   Si       0.46098    0.90459    0.69910    1.000
    Si3077   Si       0.47814    0.93956    0.62867    1.000
    N3078    N        0.46625    0.00458    0.70620    1.000
    N3079    N        0.51320    0.91307    0.63167    1.000
    N3080    N        0.45586    0.93006    0.73334    1.000
    N3081    N        0.45521    0.92675    0.66224    1.000
    Si3082   Si       0.49849    0.83861    0.83185    1.000
    Si3083   Si       0.47027    0.78423    0.78258    1.000
    N3084    N        0.48460    0.86673    0.86138    1.000
    N3085    N        0.49108    0.81445    0.75625    1.000
    N3086    N        0.46283    0.81825    0.81570    1.000
    N3087    N        0.50781    0.91211    0.89938    1.000
    N3088    N        0.49973    0.94252    0.96792    1.000
    N3089    N        0.49100    0.97852    0.79273    1.000
    Si3090   Si       0.48749    0.91792    0.86094    1.000
    N3091    N        0.49343    0.96584    0.86380    1.000
    N3092    N        0.51870    0.92239    0.82776    1.000
    N3093    N        0.46085    0.77721    0.88778    1.000
    N3094    N        0.46418    0.85387    0.97734    1.000
    Si3095   Si       0.51090    0.86834    0.90187    1.000
    Si3096   Si       0.49599    0.83233    0.95745    1.000
    Si3097   Si       0.50784    0.79011    0.89243    1.000
    N3098    N        0.48096    0.78566    0.96497    1.000
    N3099    N        0.49303    0.82566    0.91400    1.000
    N3100    N        0.55308    0.11872    0.07047    1.000
    Si3101   Si       0.53801    0.01972    0.01254    1.000
    N3102    N        0.56718    0.05146    0.00023    1.000
    N3103    N        0.54529    0.02716    0.11217    1.000
    Si3104   Si       0.56854    0.12751    0.03096    1.000
    Si3105   Si       0.55174    0.24541    0.06458    1.000
    Si3106   Si       0.56480    0.20168    0.11707    1.000
    N3107    N        0.57652    0.16024    0.11968    1.000
    N3108    N        0.52154    0.21463    0.05409    1.000
    N3109    N        0.54253    0.01241    0.21219    1.000
    N3110    N        0.53758    0.07879    0.22166    1.000
    Si3111   Si       0.53980    0.04802    0.18871    1.000
    N3112    N        0.55520    0.23503    0.21152    1.000
    N3113    N        0.53555    0.17834    0.17753    1.000
    Si3114   Si       0.55287    0.14737    0.15303    1.000
    Si3115   Si       0.54799    0.19213    0.21527    1.000
    Si3116   Si       0.51518    0.11761    0.09317    1.000
    N3117    N        0.52027    0.19750    0.11637    1.000
    N3118    N        0.52089    0.12206    0.13595    1.000
    Si3119   Si       0.57176    0.00844    0.24361    1.000
    N3120    N        0.54309    0.11851    0.99496    1.000
    N3121    N        0.54457    0.03525    0.33779    1.000
    N3122    N        0.55901    0.09018    0.29565    1.000
    Si3123   Si       0.53807    0.11191    0.36255    1.000
    Si3124   Si       0.57068    0.08206    0.25143    1.000
    Si3125   Si       0.53086    0.00934    0.30629    1.000
    N3126    N        0.56326    0.17234    0.28321    1.000
    N3127    N        0.54958    0.14932    0.34483    1.000
    Si3128   Si       0.56384    0.23987    0.31143    1.000
    Si3129   Si       0.54898    0.18676    0.36625    1.000
    N3130    N        0.52561    0.23134    0.29159    1.000
    Si3131   Si       0.52312    0.18933    0.28030    1.000
    Si3132   Si       0.57112    0.07589    0.47719    1.000
    N3133    N        0.56370    0.04301    0.40841    1.000
    N3134    N        0.53151    0.11565    0.40435    1.000
    N3135    N        0.52642    0.08294    0.47836    1.000
    Si3136   Si       0.53513    0.02328    0.37941    1.000
    Si3137   Si       0.56936    0.01514    0.44140    1.000
    Si3138   Si       0.52129    0.12277    0.49467    1.000
    Si3139   Si       0.55554    0.19227    0.48787    1.000
    Si3140   Si       0.53219    0.15037    0.43234    1.000
    N3141    N        0.56605    0.22982    0.46648    1.000
    N3142    N        0.55915    0.17637    0.41011    1.000
    N3143    N        0.54289    0.15207    0.47518    1.000
    Si3144   Si       0.57651    0.06316    0.32695    1.000
    N3145    N        0.57730    0.21652    0.34852    1.000
    N3146    N        0.53296    0.11984    0.53638    1.000
    N3147    N        0.55007    0.02289    0.61515    1.000
    Si3148   Si       0.55776    0.10721    0.61650    1.000
    N3149    N        0.57099    0.08108    0.58321    1.000
    Si3150   Si       0.57309    0.10563    0.54773    1.000
    N3151    N        0.52644    0.13382    0.60503    1.000
    N3152    N        0.52273    0.20666    0.51063    1.000
    Si3153   Si       0.55065    0.16988    0.61304    1.000
    N3154    N        0.55788    0.18369    0.57103    1.000
    Si3155   Si       0.54595    0.24089    0.61239    1.000
    N3156    N        0.51975    0.23980    0.57785    1.000
    Si3157   Si       0.52316    0.20455    0.55419    1.000
    Si3158   Si       0.52681    0.04404    0.64510    1.000
    N3159    N        0.54996    0.08120    0.65026    1.000
    N3160    N        0.52743    0.02112    0.68149    1.000
    N3161    N        0.55097    0.20632    0.63453    1.000
    N3162    N        0.54342    0.23887    0.70478    1.000
    Si3163   Si       0.55882    0.21094    0.67641    1.000
    N3164    N        0.54048    0.17336    0.69240    1.000
    N3165    N        0.57732    0.14789    0.74527    1.000
    Si3166   Si       0.53325    0.23414    0.74743    1.000
    N3167    N        0.54546    0.09028    0.77105    1.000
    Si3168   Si       0.54214    0.04582    0.84131    1.000
    N3169    N        0.56949    0.04343    0.80732    1.000
    Si3170   Si       0.53925    0.13120    0.75887    1.000
    N3171    N        0.53417    0.15859    0.79572    1.000
    N3172    N        0.56938    0.21681    0.76762    1.000
    Si3173   Si       0.56256    0.16865    0.86740    1.000
    N3174    N        0.57545    0.19319    0.83358    1.000
    Si3175   Si       0.57326    0.17936    0.79085    1.000
    N3176    N        0.57898    0.12937    0.85398    1.000
    Si3177   Si       0.58191    0.06387    0.76797    1.000
    N3178    N        0.55960    0.06594    0.87576    1.000
    Si3179   Si       0.53484    0.07774    0.98228    1.000
    N3180    N        0.52956    0.07505    0.94069    1.000
    Si3181   Si       0.54622    0.04609    0.91294    1.000
    Si3182   Si       0.53568    0.15106    0.96872    1.000
    N3183    N        0.56171    0.25151    0.90444    1.000
    N3184    N        0.57307    0.17116    0.96542    1.000
    N3185    N        0.55153    0.23058    0.99543    1.000
    Si3186   Si       0.55751    0.30482    0.09984    1.000
    N3187    N        0.53561    0.26749    0.09573    1.000
    N3188    N        0.57414    0.33387    0.07260    1.000
    N3189    N        0.57214    0.27711    0.03996    1.000
    Si3190   Si       0.55015    0.27385    0.00249    1.000
    Si3191   Si       0.56041    0.38440    0.01939    1.000
    Si3192   Si       0.57388    0.37290    0.09247    1.000
    N3193    N        0.53525    0.38441    0.10753    1.000
    N3194    N        0.57558    0.34329    0.00786    1.000
    N3195    N        0.55300    0.49895    0.03941    1.000
    Si3196   Si       0.55763    0.44682    0.99882    1.000
    Si3197   Si       0.53263    0.38975    0.20597    1.000
    Si3198   Si       0.51924    0.47722    0.05908    1.000
    N3199    N        0.52304    0.49998    0.09614    1.000
    N3200    N        0.54070    0.30266    0.19461    1.000
    Si3201   Si       0.57014    0.31917    0.22233    1.000
    N3202    N        0.55555    0.35922    0.22622    1.000
    N3203    N        0.52340    0.31822    0.12964    1.000
    Si3204   Si       0.52757    0.26264    0.19684    1.000
    N3205    N        0.56712    0.40825    0.18727    1.000
    N3206    N        0.54249    0.45222    0.14090    1.000
    N3207    N        0.52007    0.37355    0.03122    1.000
    N3208    N        0.55776    0.34308    0.31683    1.000
    Si3209   Si       0.52956    0.36201    0.34407    1.000
    Si3210   Si       0.54928    0.30568    0.29323    1.000
    N3211    N        0.56778    0.28042    0.32538    1.000
    N3212    N        0.57512    0.29898    0.25850    1.000
    Si3213   Si       0.52959    0.42783    0.27245    1.000
    N3214    N        0.55145    0.46610    0.33693    1.000
    N3215    N        0.56347    0.41798    0.29321    1.000
    N3216    N        0.54417    0.39887    0.36157    1.000
    Si3217   Si       0.56842    0.42541    0.33643    1.000
    N3218    N        0.52774    0.47123    0.26650    1.000
    Si3219   Si       0.53244    0.49429    0.30986    1.000
    Si3220   Si       0.54449    0.49629    0.37118    1.000
    Si3221   Si       0.56195    0.49305    0.24904    1.000
    Si3222   Si       0.53988    0.26556    0.46292    1.000
    N3223    N        0.55318    0.36983    0.43103    1.000
    N3224    N        0.54801    0.29209    0.42820    1.000
    Si3225   Si       0.55505    0.32983    0.40886    1.000
    Si3226   Si       0.55379    0.37490    0.47547    1.000
    N3227    N        0.52314    0.33450    0.37751    1.000
    N3228    N        0.53279    0.48052    0.45302    1.000
    Si3229   Si       0.54610    0.40468    0.40522    1.000
    N3230    N        0.53830    0.41788    0.48670    1.000
    Si3231   Si       0.56347    0.48874    0.48338    1.000
    N3232    N        0.57798    0.50564    0.39724    1.000
    Si3233   Si       0.53687    0.31776    0.52919    1.000
    N3234    N        0.53901    0.28261    0.50397    1.000
    N3235    N        0.52612    0.35081    0.50026    1.000
    Si3236   Si       0.54876    0.42885    0.52802    1.000
    N3237    N        0.57094    0.46435    0.51936    1.000
    N3238    N        0.57141    0.40027    0.55215    1.000
    N3239    N        0.53043    0.36681    0.67664    1.000
    Si3240   Si       0.53803    0.27305    0.67680    1.000
    Si3241   Si       0.56630    0.36071    0.69755    1.000
    Si3242   Si       0.53329    0.31255    0.73916    1.000
    N3243    N        0.57155    0.32339    0.72141    1.000
    N3244    N        0.57824    0.27205    0.65864    1.000
    N3245    N        0.56629    0.40025    0.62121    1.000
    Si3246   Si       0.52969    0.38418    0.63546    1.000
    Si3247   Si       0.54864    0.49186    0.71053    1.000
    N3248    N        0.57356    0.39236    0.72849    1.000
    N3249    N        0.52685    0.47559    0.67735    1.000
    N3250    N        0.55483    0.46196    0.74137    1.000
    Si3251   Si       0.53775    0.28898    0.80660    1.000
    N3252    N        0.56308    0.35090    0.85269    1.000
    N3253    N        0.52751    0.27593    0.76568    1.000
    N3254    N        0.56260    0.32216    0.79335    1.000
    N3255    N        0.55389    0.26033    0.83798    1.000
    N3256    N        0.54063    0.41577    0.84662    1.000
    Si3257   Si       0.53935    0.46950    0.78123    1.000
    N3258    N        0.57062    0.45735    0.80943    1.000
    Si3259   Si       0.53039    0.26458    0.87442    1.000
    N3260    N        0.55003    0.47750    0.97257    1.000
    N3261    N        0.55746    0.32672    0.91641    1.000
    Si3262   Si       0.56279    0.33484    0.96480    1.000
    N3263    N        0.57021    0.29293    0.96791    1.000
    Si3264   Si       0.57429    0.35826    0.89387    1.000
    Si3265   Si       0.57748    0.28645    0.92479    1.000
    Si3266   Si       0.52300    0.48172    0.93905    1.000
    N3267    N        0.56494    0.40770    0.98441    1.000
    Si3268   Si       0.54784    0.43105    0.88692    1.000
    N3269    N        0.56023    0.39689    0.91190    1.000
    Si3270   Si       0.57976    0.41875    0.82658    1.000
    Si3271   Si       0.51737    0.34938    0.84674    1.000
    Si3272   Si       0.53070    0.54248    0.09501    1.000
    N3273    N        0.57351    0.54057    0.09549    1.000
    Si3274   Si       0.56157    0.62972    0.09458    1.000
    N3275    N        0.56365    0.67261    0.10018    1.000
    N3276    N        0.54718    0.73114    0.05804    1.000
    N3277    N        0.53606    0.66439    0.01581    1.000
    N3278    N        0.53516    0.52035    0.16618    1.000
    Si3279   Si       0.55141    0.61791    0.16471    1.000
    N3280    N        0.57274    0.60471    0.12975    1.000
    N3281    N        0.52544    0.59187    0.18652    1.000
    Si3282   Si       0.57057    0.64375    0.23368    1.000
    N3283    N        0.52570    0.65346    0.15576    1.000
    Si3284   Si       0.56691    0.70970    0.21266    1.000
    N3285    N        0.54462    0.67967    0.23055    1.000
    Si3286   Si       0.55417    0.74455    0.14248    1.000
    N3287    N        0.57137    0.70723    0.16692    1.000
    N3288    N        0.56539    0.74749    0.23050    1.000
    Si3289   Si       0.54690    0.68462    0.13696    1.000
    Si3290   Si       0.57067    0.67354    0.99289    1.000
    Si3291   Si       0.54178    0.61903    0.29745    1.000
    N3292    N        0.53352    0.52820    0.34512    1.000
    N3293    N        0.55246    0.58056    0.31248    1.000
    N3294    N        0.54037    0.61687    0.25378    1.000
    N3295    N        0.55958    0.51745    0.28520    1.000
    N3296    N        0.56806    0.74591    0.37476    1.000
    N3297    N        0.55858    0.65302    0.31844    1.000
    N3298    N        0.55456    0.75209    0.30576    1.000
    Si3299   Si       0.52126    0.67533    0.32991    1.000
    N3300    N        0.52132    0.71344    0.34924    1.000
    N3301    N        0.52770    0.54606    0.42296    1.000
    Si3302   Si       0.54606    0.62353    0.46891    1.000
    N3303    N        0.54201    0.61757    0.42324    1.000
    N3304    N        0.52564    0.75157    0.48047    1.000
    Si3305   Si       0.53629    0.71752    0.38797    1.000
    N3306    N        0.57113    0.65773    0.47171    1.000
    Si3307   Si       0.52273    0.65502    0.40706    1.000
    N3308    N        0.55361    0.68543    0.41085    1.000
    N3309    N        0.57731    0.59130    0.46893    1.000
    Si3310   Si       0.56547    0.59536    0.55499    1.000
    Si3311   Si       0.55627    0.52971    0.58767    1.000
    N3312    N        0.53125    0.58440    0.53121    1.000
    N3313    N        0.56489    0.57437    0.59210    1.000
    Si3314   Si       0.52369    0.54074    0.52419    1.000
    N3315    N        0.52154    0.52144    0.56294    1.000
    N3316    N        0.55727    0.52924    0.49817    1.000
    N3317    N        0.57263    0.63676    0.56010    1.000
    Si3318   Si       0.54210    0.66639    0.56269    1.000
    N3319    N        0.54697    0.68793    0.60070    1.000
    N3320    N        0.54846    0.69127    0.52679    1.000
    Si3321   Si       0.54576    0.73264    0.51502    1.000
    N3322    N        0.52397    0.52397    0.72323    1.000
    N3323    N        0.54338    0.53080    0.63010    1.000
    Si3324   Si       0.54665    0.57458    0.63052    1.000
    N3325    N        0.56148    0.59641    0.66585    1.000
    Si3326   Si       0.52491    0.73772    0.73889    1.000
    Si3327   Si       0.57310    0.65329    0.72604    1.000
    N3328    N        0.56589    0.68349    0.69280    1.000
    Si3329   Si       0.52153    0.68548    0.68675    1.000
    N3330    N        0.53478    0.64041    0.74144    1.000
    N3331    N        0.54100    0.56336    0.82754    1.000
    Si3332   Si       0.53469    0.54235    0.76204    1.000
    Si3333   Si       0.53113    0.52092    0.83318    1.000
    N3334    N        0.56454    0.50939    0.85770    1.000
    N3335    N        0.52910    0.51071    0.79009    1.000
    N3336    N        0.52101    0.62956    0.82587    1.000
    Si3337   Si       0.55750    0.64227    0.85083    1.000
    N3338    N        0.53669    0.73550    0.82256    1.000
    Si3339   Si       0.54707    0.71491    0.85820    1.000
    N3340    N        0.56228    0.73617    0.76029    1.000
    N3341    N        0.57586    0.55908    0.75364    1.000
    Si3342   Si       0.56288    0.75962    0.79666    1.000
    N3343    N        0.57541    0.68178    0.84536    1.000
    Si3344   Si       0.55598    0.59922    0.91868    1.000
    Si3345   Si       0.57039    0.52364    0.89991    1.000
    N3346    N        0.53620    0.52092    0.92690    1.000
    N3347    N        0.57205    0.56574    0.89181    1.000
    Si3348   Si       0.55191    0.51296    0.99735    1.000
    N3349    N        0.55622    0.70087    0.90393    1.000
    N3350    N        0.54762    0.63236    0.89079    1.000
    Si3351   Si       0.52586    0.66869    0.89977    1.000
    N3352    N        0.53975    0.74307    0.95186    1.000
    Si3353   Si       0.55289    0.74489    0.90780    1.000
    N3354    N        0.55460    0.80239    0.04254    1.000
    N3355    N        0.54290    0.87270    0.02077    1.000
    Si3356   Si       0.53544    0.77236    0.06559    1.000
    Si3357   Si       0.52875    0.83333    0.02449    1.000
    N3358    N        0.52540    0.78318    0.10648    1.000
    N3359    N        0.53607    0.89719    0.09186    1.000
    Si3360   Si       0.55418    0.89932    0.05286    1.000
    N3361    N        0.54796    0.93754    0.03338    1.000
    Si3362   Si       0.54432    0.98909    0.09299    1.000
    N3363    N        0.54695    0.99882    0.04978    1.000
    Si3364   Si       0.57795    0.96598    0.04824    1.000
    N3365    N        0.58289    0.96466    0.09397    1.000
    N3366    N        0.56283    0.84299    0.12705    1.000
    Si3367   Si       0.52915    0.84816    0.21433    1.000
    N3368    N        0.55808    0.81828    0.22595    1.000
    N3369    N        0.55953    0.78215    0.16515    1.000
    Si3370   Si       0.53797    0.81109    0.14028    1.000
    N3371    N        0.54757    0.87370    0.18361    1.000
    Si3372   Si       0.57549    0.78347    0.20709    1.000
    N3373    N        0.52723    0.88340    0.24048    1.000
    Si3374   Si       0.54619    0.88463    0.13398    1.000
    N3375    N        0.54385    0.94497    0.20110    1.000
    Si3376   Si       0.52299    0.90628    0.20140    1.000
    N3377    N        0.56625    0.80712    0.34628    1.000
    N3378    N        0.56439    0.87443    0.35703    1.000
    N3379    N        0.56480    0.84923    0.29139    1.000
    N3380    N        0.54569    0.98166    0.38139    1.000
    Si3381   Si       0.54456    0.88606    0.27929    1.000
    N3382    N        0.56077    0.98998    0.28153    1.000
    Si3383   Si       0.53099    0.95358    0.35153    1.000
    N3384    N        0.57001    0.94102    0.33601    1.000
    N3385    N        0.57669    0.91647    0.27310    1.000
    Si3386   Si       0.53332    0.80852    0.37580    1.000
    Si3387   Si       0.54627    0.77607    0.45033    1.000
    N3388    N        0.55415    0.80973    0.47855    1.000
    N3389    N        0.54539    0.80465    0.41714    1.000
    Si3390   Si       0.55175    0.83830    0.44621    1.000
    Si3391   Si       0.57620    0.90900    0.43564    1.000
    N3392    N        0.53391    0.99069    0.44872    1.000
    Si3393   Si       0.53171    0.95532    0.47257    1.000
    N3394    N        0.53499    0.91847    0.44965    1.000
    Si3395   Si       0.53761    0.86849    0.53343    1.000
    N3396    N        0.56486    0.79927    0.59307    1.000
    N3397    N        0.52948    0.76790    0.53900    1.000
    Si3398   Si       0.54707    0.76248    0.57842    1.000
    Si3399   Si       0.52084    0.79609    0.50523    1.000
    N3400    N        0.53797    0.88526    0.57266    1.000
    N3401    N        0.55208    0.95891    0.51008    1.000
    Si3402   Si       0.54447    0.98482    0.54576    1.000
    N3403    N        0.55162    0.95831    0.58131    1.000
    Si3404   Si       0.56716    0.91579    0.57944    1.000
    Si3405   Si       0.53890    0.98022    0.61760    1.000
    N3406    N        0.54116    0.85146    0.63544    1.000
    Si3407   Si       0.54776    0.80947    0.63206    1.000
    N3408    N        0.55376    0.84731    0.73632    1.000
    N3409    N        0.53628    0.76429    0.70553    1.000
    Si3410   Si       0.55314    0.92083    0.65294    1.000
    N3411    N        0.56251    0.90116    0.69107    1.000
    Si3412   Si       0.53493    0.88558    0.72244    1.000
    Si3413   Si       0.55312    0.98684    0.69137    1.000
    N3414    N        0.55410    0.96345    0.65605    1.000
    N3415    N        0.53864    0.96998    0.72754    1.000
    N3416    N        0.55457    0.80086    0.78590    1.000
    Si3417   Si       0.53048    0.83147    0.76741    1.000
    N3418    N        0.54308    0.00004    0.84647    1.000
    Si3419   Si       0.54160    0.89643    0.80219    1.000
    N3420    N        0.55175    0.96998    0.79052    1.000
    N3421    N        0.54399    0.90851    0.75991    1.000
    Si3422   Si       0.56446    0.94524    0.75705    1.000
    Si3423   Si       0.57310    0.99908    0.81281    1.000
    Si3424   Si       0.52078    0.98937    0.76298    1.000
    Si3425   Si       0.55844    0.82161    0.87377    1.000
    Si3426   Si       0.56270    0.81140    0.95234    1.000
    Si3427   Si       0.54973    0.87114    0.97540    1.000
    N3428    N        0.55055    0.79677    0.90954    1.000
    N3429    N        0.53182    0.82639    0.98157    1.000
    N3430    N        0.55420    0.86165    0.89225    1.000
    Si3431   Si       0.53532    0.94587    0.99348    1.000
    Si3432   Si       0.52442    0.92372    0.93793    1.000
    Si3433   Si       0.52676    0.98406    0.88545    1.000
    N3434    N        0.54692    0.98543    0.98320    1.000
    N3435    N        0.54310    0.96276    0.92023    1.000
    N3436    N        0.55689    0.91700    0.97041    1.000
    Si3437   Si       0.57038    0.98480    0.94667    1.000
    N3438    N        0.52026    0.85919    0.80052    1.000
    N3439    N        0.52117    0.80969    0.85442    1.000
    Si3440   Si       0.51979    0.96530    0.82522    1.000
    N3441    N        0.51731    0.87393    0.94518    1.000
    N3442    N        0.60576    0.10150    0.03055    1.000
    N3443    N        0.59864    0.04464    0.06881    1.000
    Si3444   Si       0.60071    0.05821    0.02653    1.000
    N3445    N        0.63106    0.03114    0.01062    1.000
    Si3446   Si       0.58561    0.04507    0.11662    1.000
    Si3447   Si       0.58887    0.12646    0.09368    1.000
    N3448    N        0.63310    0.13411    0.08442    1.000
    N3449    N        0.59201    0.09021    0.11724    1.000
    N3450    N        0.62770    0.02998    0.12274    1.000
    Si3451   Si       0.60807    0.20214    0.05123    1.000
    N3452    N        0.61770    0.21938    0.01245    1.000
    N3453    N        0.58607    0.22485    0.08429    1.000
    N3454    N        0.58538    0.16806    0.03719    1.000
    Si3455   Si       0.60451    0.24957    0.11824    1.000
    Si3456   Si       0.59812    0.09060    0.16110    1.000
    N3457    N        0.58173    0.12595    0.17939    1.000
    N3458    N        0.59384    0.04626    0.24080    1.000
    N3459    N        0.57448    0.05385    0.16700    1.000
    Si3460   Si       0.63493    0.04056    0.22816    1.000
    Si3461   Si       0.60492    0.14057    0.21375    1.000
    N3462    N        0.58275    0.22660    0.14869    1.000
    N3463    N        0.59100    0.18252    0.22207    1.000
    Si3464   Si       0.59571    0.22646    0.19171    1.000
    N3465    N        0.59132    0.12112    0.25004    1.000
    N3466    N        0.61114    0.04730    0.30890    1.000
    Si3467   Si       0.61187    0.12095    0.35199    1.000
    N3468    N        0.57924    0.08993    0.36022    1.000
    N3469    N        0.61017    0.14244    0.38779    1.000
    Si3470   Si       0.62988    0.18043    0.48888    1.000
    Si3471   Si       0.57731    0.13205    0.29119    1.000
    Si3472   Si       0.60035    0.17139    0.41769    1.000
    N3473    N        0.61390    0.13978    0.31289    1.000
    Si3474   Si       0.59876    0.19322    0.26316    1.000
    Si3475   Si       0.61939    0.21785    0.36305    1.000
    N3476    N        0.59100    0.23405    0.27805    1.000
    Si3477   Si       0.60298    0.24130    0.49043    1.000
    N3478    N        0.58315    0.03392    0.47705    1.000
    Si3479   Si       0.62834    0.11540    0.45080    1.000
    N3480    N        0.59314    0.09263    0.44163    1.000
    N3481    N        0.62792    0.05074    0.39397    1.000
    Si3482   Si       0.59054    0.07586    0.40084    1.000
    N3483    N        0.61911    0.20805    0.40557    1.000
    N3484    N        0.61661    0.15606    0.45505    1.000
    N3485    N        0.59381    0.08750    0.51404    1.000
    N3486    N        0.62305    0.03141    0.60267    1.000
    Si3487   Si       0.60385    0.01744    0.51373    1.000
    Si3488   Si       0.58212    0.03761    0.58710    1.000
    N3489    N        0.60049    0.19346    0.68993    1.000
    N3490    N        0.57686    0.01651    0.54817    1.000
    N3491    N        0.60472    0.13490    0.55814    1.000
    N3492    N        0.60774    0.25846    0.53113    1.000
    N3493    N        0.59378    0.19135    0.51032    1.000
    Si3494   Si       0.59519    0.17659    0.55243    1.000
    Si3495   Si       0.61580    0.24186    0.56867    1.000
    N3496    N        0.62987    0.20122    0.56446    1.000
    N3497    N        0.58721    0.25104    0.59772    1.000
    Si3498   Si       0.61036    0.03251    0.71335    1.000
    N3499    N        0.59605    0.12143    0.68612    1.000
    N3500    N        0.60956    0.05419    0.66990    1.000
    Si3501   Si       0.61644    0.12863    0.64896    1.000
    Si3502   Si       0.58050    0.15792    0.70316    1.000
    N3503    N        0.58208    0.14397    0.62666    1.000
    N3504    N        0.63241    0.09980    0.62053    1.000
    Si3505   Si       0.57865    0.08184    0.68327    1.000
    N3506    N        0.57683    0.06147    0.72094    1.000
    N3507    N        0.61650    0.09144    0.77054    1.000
    N3508    N        0.60758    0.02441    0.75824    1.000
    N3509    N        0.62928    0.09435    0.84035    1.000
    N3510    N        0.58696    0.18196    0.89968    1.000
    Si3511   Si       0.59355    0.22369    0.90510    1.000
    N3512    N        0.63840    0.15762    0.95631    1.000
    Si3513   Si       0.61808    0.13381    0.75884    1.000
    Si3514   Si       0.61748    0.13802    0.83506    1.000
    Si3515   Si       0.58790    0.23319    0.83459    1.000
    N3516    N        0.62214    0.23708    0.80827    1.000
    Si3517   Si       0.60888    0.23619    0.76629    1.000
    N3518    N        0.61276    0.15609    0.79654    1.000
    N3519    N        0.61614    0.23671    0.86945    1.000
    Si3520   Si       0.59449    0.09264    0.87445    1.000
    N3521    N        0.60260    0.11706    0.91596    1.000
    Si3522   Si       0.62017    0.02367    0.91281    1.000
    N3523    N        0.62486    0.06442    0.89683    1.000
    N3524    N        0.57860    0.02078    0.92599    1.000
    Si3525   Si       0.60050    0.15729    0.93443    1.000
    N3526    N        0.60658    0.22913    0.94651    1.000
    Si3527   Si       0.58716    0.21066    0.98220    1.000
    Si3528   Si       0.63781    0.09523    0.92524    1.000
    Si3529   Si       0.59149    0.31689    0.03800    1.000
    N3530    N        0.63329    0.33074    0.02847    1.000
    Si3531   Si       0.58525    0.50753    0.06805    1.000
    Si3532   Si       0.60006    0.43821    0.05467    1.000
    N3533    N        0.59583    0.46908    0.08529    1.000
    N3534    N        0.59767    0.45883    0.01448    1.000
    Si3535   Si       0.61863    0.49799    0.01189    1.000
    Si3536   Si       0.62967    0.44719    0.10492    1.000
    N3537    N        0.58944    0.29026    0.12483    1.000
    N3538    N        0.59709    0.35854    0.12808    1.000
    N3539    N        0.60238    0.33250    0.19429    1.000
    Si3540   Si       0.60370    0.32133    0.14990    1.000
    Si3541   Si       0.59706    0.37536    0.20847    1.000
    N3542    N        0.63128    0.38692    0.18221    1.000
    Si3543   Si       0.58058    0.43935    0.16063    1.000
    N3544    N        0.59152    0.46019    0.24390    1.000
    Si3545   Si       0.62725    0.38530    0.14011    1.000
    N3546    N        0.59550    0.47774    0.17619    1.000
    Si3547   Si       0.62031    0.47556    0.21230    1.000
    N3548    N        0.60748    0.42271    0.13046    1.000
    N3549    N        0.58035    0.40025    0.05677    1.000
    N3550    N        0.61697    0.25986    0.21347    1.000
    N3551    N        0.62472    0.31716    0.32126    1.000
    Si3552   Si       0.58654    0.31808    0.34162    1.000
    Si3553   Si       0.60554    0.26774    0.25491    1.000
    N3554    N        0.61018    0.43136    0.34633    1.000
    Si3555   Si       0.59802    0.42303    0.26584    1.000
    N3556    N        0.61334    0.38643    0.24798    1.000
    N3557    N        0.58961    0.33395    0.38154    1.000
    N3558    N        0.60880    0.28143    0.47297    1.000
    Si3559   Si       0.62507    0.35304    0.40240    1.000
    Si3560   Si       0.63202    0.35319    0.48047    1.000
    N3561    N        0.59372    0.36931    0.49566    1.000
    N3562    N        0.63276    0.33493    0.43984    1.000
    N3563    N        0.63545    0.39412    0.40878    1.000
    Si3564   Si       0.63507    0.49974    0.48018    1.000
    N3565    N        0.57824    0.43489    0.40547    1.000
    N3566    N        0.60241    0.47926    0.46097    1.000
    Si3567   Si       0.61821    0.42811    0.38813    1.000
    Si3568   Si       0.59349    0.47302    0.42016    1.000
    N3569    N        0.63464    0.46512    0.40255    1.000
    Si3570   Si       0.60749    0.29848    0.51470    1.000
    N3571    N        0.61982    0.36846    0.57760    1.000
    Si3572   Si       0.59298    0.36371    0.54039    1.000
    N3573    N        0.57918    0.32390    0.53763    1.000
    Si3574   Si       0.60282    0.48138    0.54544    1.000
    N3575    N        0.61149    0.44901    0.57650    1.000
    Si3576   Si       0.59785    0.40675    0.58975    1.000
    Si3577   Si       0.59822    0.40768    0.65329    1.000
    N3578    N        0.61839    0.31273    0.62686    1.000
    Si3579   Si       0.60969    0.26833    0.63014    1.000
    N3580    N        0.60108    0.36889    0.67131    1.000
    Si3581   Si       0.61389    0.31662    0.73368    1.000
    Si3582   Si       0.62898    0.33788    0.65996    1.000
    N3583    N        0.62883    0.41582    0.62517    1.000
    N3584    N        0.62766    0.48185    0.64285    1.000
    Si3585   Si       0.61722    0.47668    0.68370    1.000
    Si3586   Si       0.58352    0.43426    0.72569    1.000
    N3587    N        0.59527    0.43835    0.68326    1.000
    N3588    N        0.59014    0.50451    0.70507    1.000
    Si3589   Si       0.58799    0.34846    0.81583    1.000
    N3590    N        0.62699    0.35178    0.75900    1.000
    N3591    N        0.63072    0.34625    0.82447    1.000
    N3592    N        0.62347    0.27767    0.75325    1.000
    N3593    N        0.58244    0.38712    0.79588    1.000
    Si3594   Si       0.60474    0.38843    0.75932    1.000
    N3595    N        0.61972    0.41124    0.84360    1.000
    Si3596   Si       0.58802    0.47825    0.84488    1.000
    N3597    N        0.62941    0.48374    0.82922    1.000
    N3598    N        0.61964    0.42894    0.75207    1.000
    N3599    N        0.61375    0.43510    0.94700    1.000
    N3600    N        0.60052    0.36042    0.95258    1.000
    N3601    N        0.62037    0.29174    0.91971    1.000
    N3602    N        0.61678    0.36156    0.89172    1.000
    Si3603   Si       0.62524    0.35797    0.99215    1.000
    Si3604   Si       0.63489    0.33762    0.92640    1.000
    Si3605   Si       0.63042    0.43923    0.98787    1.000
    Si3606   Si       0.61304    0.46072    0.91150    1.000
    Si3607   Si       0.58633    0.40203    0.94679    1.000
    N3608    N        0.58536    0.45253    0.87782    1.000
    Si3609   Si       0.61515    0.62126    0.03583    1.000
    N3610    N        0.62406    0.58585    0.00925    1.000
    N3611    N        0.62438    0.51821    0.04994    1.000
    N3612    N        0.58744    0.61247    0.06613    1.000
    Si3613   Si       0.59922    0.56727    0.12102    1.000
    Si3614   Si       0.62440    0.75752    0.12421    1.000
    N3615    N        0.61397    0.70674    0.05990    1.000
    Si3616   Si       0.61685    0.72708    0.02283    1.000
    N3617    N        0.60552    0.64950    0.00443    1.000
    N3618    N        0.58664    0.73980    0.11293    1.000
    N3619    N        0.58185    0.71371    0.99991    1.000
    Si3620   Si       0.57758    0.70901    0.08015    1.000
    N3621    N        0.63074    0.57627    0.21837    1.000
    Si3622   Si       0.60789    0.58908    0.18283    1.000
    Si3623   Si       0.61709    0.54124    0.23823    1.000
    N3624    N        0.59504    0.55278    0.16238    1.000
    N3625    N        0.58257    0.62385    0.19578    1.000
    N3626    N        0.63319    0.73803    0.16258    1.000
    Si3627   Si       0.61585    0.70108    0.17304    1.000
    N3628    N        0.60836    0.69829    0.21598    1.000
    Si3629   Si       0.57553    0.51662    0.18037    1.000
    N3630    N        0.58116    0.52243    0.22369    1.000
    N3631    N        0.60120    0.53415    0.33889    1.000
    N3632    N        0.61733    0.55640    0.28108    1.000
    N3633    N        0.62671    0.62280    0.32182    1.000
    Si3634   Si       0.58069    0.54912    0.30495    1.000
    N3635    N        0.59927    0.65337    0.26486    1.000
    Si3636   Si       0.60032    0.65626    0.30809    1.000
    N3637    N        0.61043    0.72123    0.28076    1.000
    N3638    N        0.62782    0.68364    0.32707    1.000
    Si3639   Si       0.62417    0.68811    0.25413    1.000
    Si3640   Si       0.58320    0.75272    0.27106    1.000
    Si3641   Si       0.63724    0.72404    0.31560    1.000
    Si3642   Si       0.60456    0.53748    0.38316    1.000
    N3643    N        0.62769    0.54258    0.48252    1.000
    N3644    N        0.59622    0.57399    0.40226    1.000
    Si3645   Si       0.58693    0.60470    0.42708    1.000
    Si3646   Si       0.58856    0.55948    0.49381    1.000
    N3647    N        0.61968    0.70597    0.40443    1.000
    N3648    N        0.58021    0.74960    0.44081    1.000
    N3649    N        0.62053    0.69319    0.46671    1.000
    N3650    N        0.61340    0.63785    0.42215    1.000
    Si3651   Si       0.59854    0.74416    0.40347    1.000
    Si3652   Si       0.59611    0.67554    0.43144    1.000
    Si3653   Si       0.61068    0.73620    0.46942    1.000
    N3654    N        0.59713    0.57461    0.53377    1.000
    Si3655   Si       0.61448    0.55433    0.56842    1.000
    N3656    N        0.62811    0.55349    0.61186    1.000
    N3657    N        0.59188    0.51673    0.56737    1.000
    N3658    N        0.63431    0.61210    0.57849    1.000
    Si3659   Si       0.60767    0.74765    0.54077    1.000
    Si3660   Si       0.61220    0.64837    0.56842    1.000
    N3661    N        0.61637    0.67664    0.60388    1.000
    N3662    N        0.58955    0.73148    0.50600    1.000
    N3663    N        0.62303    0.67372    0.53381    1.000
    Si3664   Si       0.59009    0.68312    0.50276    1.000
    Si3665   Si       0.58596    0.70653    0.60417    1.000
    N3666    N        0.58153    0.73695    0.57306    1.000
    Si3667   Si       0.63482    0.61685    0.73902    1.000
    N3668    N        0.62089    0.62165    0.64590    1.000
    N3669    N        0.60052    0.62373    0.71395    1.000
    Si3670   Si       0.60496    0.53915    0.72477    1.000
    Si3671   Si       0.60235    0.60043    0.67762    1.000
    N3672    N        0.62211    0.56430    0.69237    1.000
    N3673    N        0.63478    0.68221    0.67797    1.000
    Si3674   Si       0.63623    0.66212    0.63693    1.000
    N3675    N        0.60344    0.74049    0.70756    1.000
    Si3676   Si       0.59963    0.70739    0.67939    1.000
    N3677    N        0.59926    0.72705    0.64003    1.000
    Si3678   Si       0.59699    0.71725    0.74662    1.000
    N3679    N        0.61086    0.55387    0.82714    1.000
    Si3680   Si       0.60700    0.56190    0.78444    1.000
    Si3681   Si       0.62717    0.61892    0.81999    1.000
    N3682    N        0.62328    0.60122    0.77863    1.000
    N3683    N        0.58908    0.61378    0.84060    1.000
    N3684    N        0.62983    0.52984    0.76280    1.000
    Si3685   Si       0.58048    0.74131    0.96747    1.000
    Si3686   Si       0.57793    0.57239    0.84765    1.000
    Si3687   Si       0.61897    0.68436    0.85081    1.000
    N3688    N        0.59712    0.67530    0.75332    1.000
    N3689    N        0.63459    0.66141    0.81758    1.000
    Si3690   Si       0.61483    0.75867    0.85218    1.000
    N3691    N        0.57963    0.74787    0.87240    1.000
    Si3692   Si       0.60666    0.56352    0.97626    1.000
    N3693    N        0.58356    0.59483    0.95410    1.000
    N3694    N        0.59203    0.52664    0.99224    1.000
    Si3695   Si       0.60608    0.63069    0.96605    1.000
    N3696    N        0.60597    0.50358    0.91627    1.000
    N3697    N        0.57955    0.66246    0.95125    1.000
    N3698    N        0.62378    0.67169    0.89332    1.000
    Si3699   Si       0.59560    0.68775    0.92112    1.000
    N3700    N        0.60879    0.72623    0.93602    1.000
    Si3701   Si       0.58863    0.79808    0.01632    1.000
    N3702    N        0.61914    0.77030    0.03267    1.000
    N3703    N        0.61777    0.83173    0.01664    1.000
    N3704    N        0.63202    0.85697    0.09979    1.000
    N3705    N        0.59801    0.90319    0.05720    1.000
    N3706    N        0.61736    0.96199    0.03086    1.000
    Si3707   Si       0.62715    0.91727    0.02616    1.000
    Si3708   Si       0.63339    0.89642    0.08431    1.000
    N3709    N        0.62436    0.80118    0.12542    1.000
    Si3710   Si       0.62800    0.83140    0.20694    1.000
    Si3711   Si       0.60573    0.83980    0.12954    1.000
    N3712    N        0.61924    0.78873    0.20453    1.000
    N3713    N        0.61737    0.85400    0.17058    1.000
    N3714    N        0.61172    0.85381    0.24110    1.000
    Si3715   Si       0.60340    0.94425    0.12630    1.000
    N3716    N        0.59997    0.97966    0.23049    1.000
    N3717    N        0.60180    0.91328    0.21055    1.000
    N3718    N        0.61197    0.96194    0.16495    1.000
    Si3719   Si       0.59038    0.88578    0.18047    1.000
    Si3720   Si       0.58715    0.95156    0.20010    1.000
    N3721    N        0.58437    0.90701    0.14222    1.000
    N3722    N        0.60313    0.79178    0.27332    1.000
    N3723    N        0.62647    0.83471    0.32643    1.000
    Si3724   Si       0.58229    0.82672    0.26004    1.000
    N3725    N        0.62466    0.76456    0.33144    1.000
    Si3726   Si       0.57992    0.76815    0.33905    1.000
    Si3727   Si       0.58337    0.84505    0.33091    1.000
    Si3728   Si       0.63495    0.79947    0.30262    1.000
    N3729    N        0.62243    0.96921    0.29780    1.000
    Si3730   Si       0.58991    0.90875    0.35657    1.000
    N3731    N        0.62861    0.89992    0.33946    1.000
    Si3732   Si       0.60815    0.89694    0.24996    1.000
    N3733    N        0.62431    0.98281    0.36835    1.000
    Si3734   Si       0.63360    0.97975    0.25710    1.000
    Si3735   Si       0.58067    0.95351    0.29636    1.000
    N3736    N        0.58386    0.86784    0.44056    1.000
    N3737    N        0.61888    0.81922    0.46963    1.000
    Si3738   Si       0.62316    0.86177    0.46031    1.000
    N3739    N        0.63052    0.77224    0.40101    1.000
    Si3740   Si       0.63419    0.00841    0.40164    1.000
    Si3741   Si       0.58787    0.96712    0.38876    1.000
    N3742    N        0.58656    0.92515    0.39687    1.000
    N3743    N        0.60305    0.98805    0.42607    1.000
    N3744    N        0.59743    0.92866    0.46767    1.000
    Si3745   Si       0.61880    0.96580    0.46014    1.000
    N3746    N        0.60360    0.79142    0.53563    1.000
    Si3747   Si       0.60457    0.81124    0.57559    1.000
    N3748    N        0.62836    0.78303    0.60053    1.000
    Si3749   Si       0.61470    0.87262    0.53692    1.000
    N3750    N        0.62942    0.84483    0.56959    1.000
    Si3751   Si       0.59071    0.81489    0.50238    1.000
    N3752    N        0.57740    0.85290    0.52553    1.000
    N3753    N        0.63697    0.87709    0.50013    1.000
    N3754    N        0.59648    0.91300    0.54493    1.000
    Si3755   Si       0.59238    0.94031    0.51108    1.000
    N3756    N        0.61677    0.97616    0.50578    1.000
    N3757    N        0.58375    0.91318    0.61977    1.000
    Si3758   Si       0.61440    0.76986    0.63904    1.000
    N3759    N        0.60522    0.80232    0.71713    1.000
    N3760    N        0.62162    0.86954    0.71849    1.000
    Si3761   Si       0.59804    0.83834    0.73726    1.000
    N3762    N        0.59575    0.99502    0.69684    1.000
    Si3763   Si       0.62212    0.92845    0.63029    1.000
    Si3764   Si       0.62291    0.97110    0.67604    1.000
    N3765    N        0.60515    0.93763    0.74473    1.000
    N3766    N        0.62301    0.92601    0.67604    1.000
    Si3767   Si       0.60315    0.90616    0.71006    1.000
    N3768    N        0.62532    0.97198    0.63332    1.000
    Si3769   Si       0.57670    0.77552    0.69805    1.000
    N3770    N        0.57934    0.78954    0.65549    1.000
    N3771    N        0.60973    0.84185    0.77903    1.000
    N3772    N        0.59009    0.82464    0.84741    1.000
    Si3773   Si       0.59197    0.81331    0.80673    1.000
    N3774    N        0.60325    0.77153    0.81307    1.000
    Si3775   Si       0.61927    0.87712    0.80270    1.000
    Si3776   Si       0.63071    0.83232    0.86193    1.000
    N3777    N        0.61415    0.98875    0.81727    1.000
    N3778    N        0.58203    0.89509    0.81609    1.000
    Si3779   Si       0.59303    0.86840    0.91222    1.000
    Si3780   Si       0.62296    0.85446    0.97981    1.000
    N3781    N        0.58367    0.85364    0.95378    1.000
    N3782    N        0.63025    0.85203    0.90021    1.000
    N3783    N        0.58547    0.78382    0.97566    1.000
    N3784    N        0.62229    0.89797    0.98856    1.000
    N3785    N        0.62267    0.98709    0.88844    1.000
    N3786    N        0.60718    0.96292    0.95660    1.000
    Si3787   Si       0.62905    0.94409    0.90256    1.000
    Si3788   Si       0.59879    0.92225    0.96001    1.000
    N3789    N        0.60461    0.91025    0.91737    1.000
    Si3790   Si       0.63740    0.00948    0.78555    1.000
    N3791    N        0.66272    0.07496    0.06366    1.000
    Si3792   Si       0.64443    0.11193    0.04931    1.000
    Si3793   Si       0.64186    0.04086    0.08402    1.000
    N3794    N        0.67001    0.13645    0.02132    1.000
    N3795    N        0.67753    0.24651    0.04490    1.000
    Si3796   Si       0.66244    0.16400    0.09485    1.000
    Si3797   Si       0.66627    0.23403    0.08319    1.000
    N3798    N        0.64628    0.19740    0.07140    1.000
    Si3799   Si       0.65749    0.23352    0.00754    1.000
    N3800    N        0.64543    0.25727    0.11108    1.000
    N3801    N        0.64006    0.08145    0.16810    1.000
    N3802    N        0.64865    0.01846    0.19254    1.000
    Si3803   Si       0.66421    0.10420    0.19689    1.000
    N3804    N        0.65979    0.07740    0.22930    1.000
    Si3805   Si       0.65389    0.04259    0.15577    1.000
    N3806    N        0.69406    0.23595    0.16881    1.000
    Si3807   Si       0.65892    0.24749    0.19600    1.000
    N3808    N        0.64437    0.14211    0.19944    1.000
    N3809    N        0.67904    0.23063    0.23176    1.000
    Si3810   Si       0.66101    0.17562    0.17830    1.000
    N3811    N        0.67128    0.17295    0.13601    1.000
    N3812    N        0.63696    0.21052    0.18263    1.000
    N3813    N        0.65287    0.10210    0.35287    1.000
    Si3814   Si       0.65370    0.04062    0.29810    1.000
    N3815    N        0.68077    0.07470    0.29747    1.000
    Si3816   Si       0.68458    0.10911    0.32390    1.000
    N3817    N        0.65541    0.01874    0.26074    1.000
    N3818    N        0.66929    0.01368    0.32893    1.000
    Si3819   Si       0.69332    0.07623    0.25661    1.000
    N3820    N        0.64953    0.19257    0.34520    1.000
    Si3821   Si       0.66348    0.22894    0.27276    1.000
    N3822    N        0.68543    0.14615    0.30096    1.000
    Si3823   Si       0.64842    0.16644    0.30926    1.000
    N3824    N        0.69123    0.23521    0.30614    1.000
    Si3825   Si       0.68939    0.21100    0.34330    1.000
    N3826    N        0.64066    0.19245    0.27384    1.000
    Si3827   Si       0.65911    0.07896    0.38860    1.000
    N3828    N        0.65589    0.10359    0.48631    1.000
    N3829    N        0.65809    0.10133    0.42418    1.000
    N3830    N        0.69187    0.05352    0.45917    1.000
    Si3831   Si       0.65048    0.22384    0.43012    1.000
    N3832    N        0.69159    0.20387    0.42437    1.000
    N3833    N        0.63949    0.21826    0.47041    1.000
    Si3834   Si       0.69022    0.09769    0.45219    1.000
    N3835    N        0.63515    0.25926    0.35220    1.000
    N3836    N        0.65773    0.08868    0.55507    1.000
    N3837    N        0.64455    0.03728    0.50996    1.000
    Si3838   Si       0.63718    0.11807    0.58073    1.000
    Si3839   Si       0.68737    0.03296    0.49758    1.000
    Si3840   Si       0.68504    0.13204    0.50351    1.000
    Si3841   Si       0.68060    0.16260    0.62487    1.000
    N3842    N        0.66401    0.16902    0.51261    1.000
    N3843    N        0.66612    0.14975    0.58570    1.000
    Si3844   Si       0.66742    0.18086    0.55541    1.000
    N3845    N        0.66582    0.10225    0.69610    1.000
    N3846    N        0.67622    0.05100    0.64877    1.000
    N3847    N        0.65412    0.03600    0.71255    1.000
    Si3848   Si       0.68435    0.06115    0.69345    1.000
    Si3849   Si       0.67890    0.11213    0.73905    1.000
    Si3850   Si       0.63540    0.05934    0.63599    1.000
    N3851    N        0.64436    0.15963    0.65425    1.000
    Si3852   Si       0.67991    0.24408    0.63162    1.000
    Si3853   Si       0.66851    0.18735    0.73633    1.000
    Si3854   Si       0.63872    0.20094    0.67027    1.000
    N3855    N        0.64965    0.14829    0.73485    1.000
    N3856    N        0.63941    0.23877    0.64945    1.000
    N3857    N        0.68013    0.18902    0.69245    1.000
    Si3858   Si       0.67467    0.14581    0.68521    1.000
    Si3859   Si       0.63650    0.07922    0.51734    1.000
    N3860    N        0.65058    0.26086    0.58895    1.000
    N3861    N        0.64563    0.22234    0.74562    1.000
    N3862    N        0.65994    0.04176    0.80526    1.000
    N3863    N        0.67453    0.11127    0.78391    1.000
    Si3864   Si       0.64649    0.08209    0.80076    1.000
    Si3865   Si       0.66489    0.10533    0.86576    1.000
    Si3866   Si       0.65050    0.23897    0.84061    1.000
    N3867    N        0.68259    0.21475    0.85401    1.000
    N3868    N        0.65386    0.14901    0.85582    1.000
    Si3869   Si       0.68833    0.17289    0.86261    1.000
    N3870    N        0.69124    0.25218    0.78983    1.000
    N3871    N        0.69945    0.09475    0.84349    1.000
    N3872    N        0.65915    0.08523    0.96221    1.000
    N3873    N        0.67658    0.10582    0.90686    1.000
    N3874    N        0.64893    0.02097    0.94550    1.000
    Si3875   Si       0.65873    0.04508    0.98098    1.000
    Si3876   Si       0.67008    0.15781    0.98372    1.000
    N3877    N        0.66837    0.25199    0.91103    1.000
    N3878    N        0.68168    0.19899    0.99098    1.000
    Si3879   Si       0.69904    0.22708    0.89305    1.000
    Si3880   Si       0.69736    0.02314    0.82253    1.000
    Si3881   Si       0.67237    0.32739    0.04460    1.000
    N3882    N        0.66886    0.31961    0.08733    1.000
    N3883    N        0.68920    0.36929    0.05277    1.000
    Si3884   Si       0.68535    0.35896    0.09678    1.000
    Si3885   Si       0.66807    0.29235    0.12242    1.000
    Si3886   Si       0.66785    0.40904    0.03833    1.000
    N3887    N        0.64128    0.43153    0.06355    1.000
    N3888    N        0.64124    0.39871    0.00410    1.000
    N3889    N        0.66537    0.38793    0.11848    1.000
    N3890    N        0.67890    0.28909    0.20276    1.000
    Si3891   Si       0.65445    0.32683    0.19300    1.000
    N3892    N        0.64517    0.31238    0.15241    1.000
    N3893    N        0.68833    0.35636    0.18843    1.000
    N3894    N        0.65357    0.33147    0.23978    1.000
    N3895    N        0.68044    0.39645    0.24358    1.000
    Si3896   Si       0.68393    0.49788    0.13081    1.000
    N3897    N        0.64913    0.44288    0.21323    1.000
    Si3898   Si       0.68825    0.42206    0.13213    1.000
    Si3899   Si       0.66761    0.40206    0.20120    1.000
    N3900    N        0.66535    0.45801    0.12497    1.000
    N3901    N        0.66476    0.36775    0.30256    1.000
    Si3902   Si       0.66279    0.33460    0.33235    1.000
    Si3903   Si       0.65113    0.36880    0.26111    1.000
    N3904    N        0.68429    0.29703    0.33068    1.000
    N3905    N        0.64497    0.27108    0.27436    1.000
    Si3906   Si       0.64388    0.27836    0.31670    1.000
    Si3907   Si       0.64372    0.45097    0.32729    1.000
    N3908    N        0.65552    0.49258    0.32007    1.000
    N3909    N        0.68258    0.43241    0.33712    1.000
    Si3910   Si       0.66291    0.43830    0.25360    1.000
    N3911    N        0.69331    0.46493    0.26395    1.000
    Si3912   Si       0.69408    0.49355    0.29774    1.000
    N3913    N        0.63526    0.43631    0.28556    1.000
    N3914    N        0.65714    0.34288    0.37365    1.000
    N3915    N        0.68503    0.29706    0.46604    1.000
    Si3916   Si       0.67452    0.27754    0.37733    1.000
    Si3917   Si       0.64234    0.29364    0.44884    1.000
    N3918    N        0.65197    0.26645    0.41536    1.000
    N3919    N        0.66505    0.38386    0.47403    1.000
    N3920    N        0.68854    0.43520    0.43050    1.000
    Si3921   Si       0.67200    0.39468    0.43245    1.000
    Si3922   Si       0.67383    0.47587    0.41447    1.000
    N3923    N        0.66751    0.49574    0.45120    1.000
    Si3924   Si       0.69486    0.39298    0.32168    1.000
    Si3925   Si       0.67549    0.29360    0.24673    1.000
    N3926    N        0.68135    0.32173    0.59584    1.000
    Si3927   Si       0.68535    0.31308    0.50599    1.000
    Si3928   Si       0.68377    0.28530    0.57648    1.000
    N3929    N        0.64257    0.32454    0.51182    1.000
    Si3930   Si       0.64078    0.33816    0.60190    1.000
    N3931    N        0.64010    0.48965    0.52200    1.000
    N3932    N        0.66289    0.49472    0.59148    1.000
    N3933    N        0.68314    0.43421    0.59814    1.000
    Si3934   Si       0.64371    0.45574    0.60606    1.000
    N3935    N        0.66110    0.35905    0.63996    1.000
    Si3936   Si       0.68122    0.31911    0.70191    1.000
    N3937    N        0.63811    0.31832    0.69733    1.000
    N3938    N        0.69313    0.28694    0.72749    1.000
    Si3939   Si       0.68583    0.50409    0.69287    1.000
    N3940    N        0.68223    0.41701    0.66826    1.000
    Si3941   Si       0.67254    0.40183    0.62883    1.000
    N3942    N        0.65422    0.47867    0.70819    1.000
    N3943    N        0.69045    0.42513    0.73303    1.000
    Si3944   Si       0.65829    0.44994    0.74252    1.000
    Si3945   Si       0.66594    0.50933    0.54950    1.000
    Si3946   Si       0.65707    0.34920    0.79081    1.000
    N3947    N        0.66455    0.27956    0.84832    1.000
    N3948    N        0.68634    0.31580    0.78718    1.000
    Si3949   Si       0.66370    0.26074    0.75306    1.000
    Si3950   Si       0.63919    0.37435    0.85557    1.000
    Si3951   Si       0.69382    0.28576    0.81635    1.000
    N3952    N        0.68171    0.38556    0.79250    1.000
    N3953    N        0.68027    0.38722    0.86280    1.000
    N3954    N        0.67324    0.47647    0.77484    1.000
    N3955    N        0.68638    0.44701    0.83516    1.000
    Si3956   Si       0.64314    0.44729    0.84956    1.000
    Si3957   Si       0.65036    0.50677    0.79574    1.000
    Si3958   Si       0.67571    0.30404    0.98052    1.000
    N3959    N        0.65213    0.33667    0.96597    1.000
    N3960    N        0.67188    0.32419    0.90411    1.000
    Si3961   Si       0.65299    0.28597    0.88915    1.000
    N3962    N        0.65717    0.26630    0.97943    1.000
    Si3963   Si       0.68848    0.47431    0.90171    1.000
    N3964    N        0.65037    0.45729    0.88943    1.000
    Si3965   Si       0.69008    0.49682    0.97401    1.000
    N3966    N        0.67375    0.49943    0.93461    1.000
    N3967    N        0.65419    0.47797    0.99462    1.000
    Si3968   Si       0.63858    0.25663    0.94287    1.000
    Si3969   Si       0.66442    0.59018    0.02209    1.000
    Si3970   Si       0.65714    0.53730    0.07130    1.000
    N3971    N        0.65821    0.62109    0.04994    1.000
    N3972    N        0.68374    0.55767    0.04120    1.000
    N3973    N        0.68576    0.51066    0.08968    1.000
    Si3974   Si       0.68692    0.64859    0.06208    1.000
    N3975    N        0.66802    0.67446    0.09248    1.000
    Si3976   Si       0.65347    0.71024    0.07637    1.000
    N3977    N        0.65968    0.74289    0.10377    1.000
    N3978    N        0.68125    0.73205    0.04785    1.000
    Si3979   Si       0.68803    0.71087    0.01103    1.000
    N3980    N        0.69495    0.66825    0.02120    1.000
    N3981    N        0.68106    0.62761    0.21099    1.000
    Si3982   Si       0.66561    0.56508    0.13745    1.000
    Si3983   Si       0.68106    0.52142    0.20281    1.000
    N3984    N        0.67036    0.52754    0.15824    1.000
    Si3985   Si       0.66965    0.58947    0.22830    1.000
    N3986    N        0.64406    0.59954    0.15705    1.000
    Si3987   Si       0.66710    0.63349    0.17256    1.000
    N3988    N        0.64497    0.51029    0.22390    1.000
    Si3989   Si       0.69079    0.74873    0.13663    1.000
    Si3990   Si       0.67697    0.67653    0.13394    1.000
    N3991    N        0.64327    0.67014    0.16058    1.000
    N3992    N        0.66546    0.73993    0.22956    1.000
    N3993    N        0.63938    0.55950    0.10342    1.000
    N3994    N        0.66589    0.56752    0.32763    1.000
    N3995    N        0.67060    0.60100    0.27074    1.000
    Si3996   Si       0.64308    0.53150    0.33387    1.000
    Si3997   Si       0.63736    0.58815    0.29996    1.000
    Si3998   Si       0.67870    0.56589    0.37129    1.000
    Si3999   Si       0.65544    0.65167    0.33946    1.000
    N4000    N        0.67920    0.72764    0.29964    1.000
    N4001    N        0.66685    0.67697    0.25767    1.000
    Si4002   Si       0.68713    0.71680    0.25685    1.000
    Si4003   Si       0.68909    0.64294    0.27092    1.000
    N4004    N        0.67112    0.73000    0.36143    1.000
    N4005    N        0.69195    0.65155    0.31393    1.000
    N4006    N        0.64809    0.53450    0.37841    1.000
    N4007    N        0.67817    0.59625    0.39984    1.000
    Si4008   Si       0.65716    0.63225    0.41450    1.000
    N4009    N        0.68382    0.71001    0.42741    1.000
    N4010    N        0.66541    0.66012    0.38033    1.000
    Si4011   Si       0.68302    0.74964    0.48913    1.000
    Si4012   Si       0.66044    0.70176    0.39222    1.000
    N4013    N        0.67179    0.64799    0.45253    1.000
    Si4014   Si       0.66433    0.69052    0.46137    1.000
    N4015    N        0.64668    0.75757    0.46651    1.000
    Si4016   Si       0.69364    0.62340    0.48257    1.000
    N4017    N        0.65559    0.55178    0.55016    1.000
    N4018    N        0.66726    0.60192    0.51116    1.000
    Si4019   Si       0.66384    0.59717    0.55422    1.000
    Si4020   Si       0.66054    0.55856    0.50540    1.000
    Si4021   Si       0.63945    0.59363    0.61934    1.000
    N4022    N        0.69474    0.72353    0.68402    1.000
    N4023    N        0.67817    0.73514    0.61202    1.000
    Si4024   Si       0.66214    0.69763    0.53647    1.000
    N4025    N        0.64762    0.73568    0.55073    1.000
    N4026    N        0.69066    0.67680    0.56201    1.000
    N4027    N        0.67992    0.70676    0.49748    1.000
    N4028    N        0.67830    0.59054    0.64264    1.000
    Si4029   Si       0.64787    0.51865    0.62808    1.000
    Si4030   Si       0.66959    0.56852    0.68327    1.000
    N4031    N        0.66695    0.60172    0.71380    1.000
    N4032    N        0.67366    0.52847    0.65902    1.000
    Si4033   Si       0.69245    0.63301    0.73322    1.000
    N4034    N        0.67956    0.67155    0.63503    1.000
    Si4035   Si       0.67979    0.68411    0.67689    1.000
    Si4036   Si       0.68535    0.75234    0.65163    1.000
    Si4037   Si       0.66118    0.76154    0.58366    1.000
    N4038    N        0.65903    0.59990    0.84064    1.000
    N4039    N        0.67615    0.53522    0.81771    1.000
    Si4040   Si       0.64985    0.55607    0.84691    1.000
    Si4041   Si       0.67914    0.73287    0.84382    1.000
    Si4042   Si       0.66925    0.74500    0.76995    1.000
    N4043    N        0.65988    0.65087    0.75343    1.000
    N4044    N        0.63511    0.72069    0.77147    1.000
    N4045    N        0.63828    0.72348    0.84966    1.000
    Si4046   Si       0.63523    0.67658    0.77765    1.000
    N4047    N        0.64811    0.71886    0.99106    1.000
    Si4048   Si       0.66666    0.59347    0.95243    1.000
    N4049    N        0.66039    0.54325    0.88636    1.000
    Si4050   Si       0.64207    0.52672    0.92190    1.000
    N4051    N        0.68836    0.60387    0.98896    1.000
    N4052    N        0.63950    0.55992    0.95051    1.000
    N4053    N        0.64382    0.62915    0.94260    1.000
    N4054    N        0.67375    0.69387    0.92987    1.000
    Si4055   Si       0.66030    0.65705    0.91136    1.000
    Si4056   Si       0.65190    0.72765    0.94857    1.000
    N4057    N        0.69416    0.63527    0.88988    1.000
    N4058    N        0.66924    0.80205    0.07097    1.000
    Si4059   Si       0.65787    0.82257    0.10773    1.000
    Si4060   Si       0.64819    0.80413    0.03421    1.000
    N4061    N        0.68231    0.80397    0.00822    1.000
    Si4062   Si       0.64882    0.97611    0.18555    1.000
    N4063    N        0.64285    0.92680    0.11346    1.000
    N4064    N        0.66196    0.90428    0.05080    1.000
    Si4065   Si       0.64765    0.99333    0.02645    1.000
    N4066    N        0.66322    0.00793    0.06521    1.000
    N4067    N        0.67111    0.82447    0.21250    1.000
    N4068    N        0.68423    0.77709    0.16844    1.000
    N4069    N        0.68648    0.83724    0.13662    1.000
    Si4070   Si       0.65306    0.76131    0.19561    1.000
    N4071    N        0.66479    0.96537    0.22909    1.000
    Si4072   Si       0.68428    0.94082    0.12238    1.000
    N4073    N        0.68078    0.96395    0.15967    1.000
    Si4074   Si       0.69396    0.99912    0.24482    1.000
    Si4075   Si       0.67941    0.92704    0.24209    1.000
    N4076    N        0.67567    0.80167    0.28637    1.000
    N4077    N        0.68363    0.79699    0.35591    1.000
    Si4078   Si       0.65470    0.86346    0.34470    1.000
    Si4079   Si       0.65185    0.76873    0.36486    1.000
    N4080    N        0.68132    0.87667    0.31364    1.000
    Si4081   Si       0.69276    0.81335    0.24881    1.000
    N4082    N        0.64511    0.91213    0.26539    1.000
    Si4083   Si       0.65600    0.91302    0.30692    1.000
    N4084    N        0.67452    0.94520    0.32717    1.000
    Si4085   Si       0.64616    0.97776    0.33278    1.000
    N4086    N        0.67736    0.86135    0.38160    1.000
    N4087    N        0.67621    0.81058    0.42834    1.000
    Si4088   Si       0.64172    0.79071    0.44044    1.000
    Si4089   Si       0.66142    0.91151    0.48062    1.000
    N4090    N        0.65593    0.88562    0.44307    1.000
    Si4091   Si       0.68640    0.88978    0.41173    1.000
    N4092    N        0.66105    0.95164    0.46092    1.000
    Si4093   Si       0.68867    0.96270    0.42966    1.000
    N4094    N        0.67333    0.00240    0.41798    1.000
    N4095    N        0.68988    0.93086    0.39685    1.000
    Si4096   Si       0.67368    0.83784    0.58040    1.000
    N4097    N        0.68811    0.79637    0.58440    1.000
    Si4098   Si       0.63627    0.77270    0.70924    1.000
    N4099    N        0.64833    0.97333    0.56861    1.000
    Si4100   Si       0.65533    0.97262    0.52457    1.000
    Si4101   Si       0.67264    0.93671    0.57192    1.000
    N4102    N        0.65820    0.91528    0.60980    1.000
    N4103    N        0.66697    0.93177    0.52705    1.000
    Si4104   Si       0.64761    0.99622    0.60447    1.000
    N4105    N        0.69079    0.99703    0.61615    1.000
    N4106    N        0.69319    0.99080    0.50897    1.000
    Si4107   Si       0.66430    0.87256    0.71091    1.000
    N4108    N        0.65034    0.77394    0.66703    1.000
    N4109    N        0.66328    0.77784    0.74191    1.000
    N4110    N        0.69552    0.84403    0.72036    1.000
    N4111    N        0.65998    0.97200    0.69605    1.000
    Si4112   Si       0.69039    0.89645    0.63254    1.000
    Si4113   Si       0.67088    0.93067    0.68691    1.000
    N4114    N        0.67206    0.91416    0.72951    1.000
    N4115    N        0.67378    0.88603    0.67044    1.000
    Si4116   Si       0.67300    0.99879    0.72680    1.000
    N4117    N        0.69556    0.85850    0.61235    1.000
    N4118    N        0.69008    0.78031    0.51596    1.000
    N4119    N        0.64312    0.86046    0.83334    1.000
    N4120    N        0.63984    0.78898    0.87002    1.000
    N4121    N        0.64011    0.93416    0.86193    1.000
    N4122    N        0.64846    0.90919    0.79444    1.000
    Si4123   Si       0.65849    0.90333    0.83800    1.000
    N4124    N        0.65740    0.97830    0.76191    1.000
    N4125    N        0.68058    0.98794    0.83812    1.000
    Si4126   Si       0.64818    0.93467    0.75994    1.000
    Si4127   Si       0.64103    0.97635    0.84991    1.000
    Si4128   Si       0.66897    0.85115    0.91642    1.000
    Si4129   Si       0.67917    0.80093    0.96372    1.000
    N4130    N        0.65852    0.83889    0.95834    1.000
    N4131    N        0.66668    0.76690    0.93770    1.000
    Si4132   Si       0.67407    0.77900    0.89732    1.000
    N4133    N        0.69248    0.82012    0.89614    1.000
    N4134    N        0.67137    0.97895    0.99276    1.000
    Si4135   Si       0.64730    0.97783    0.95624    1.000
    N4136    N        0.66414    0.95018    0.92662    1.000
    N4137    N        0.68266    0.75853    0.81010    1.000
    N4138    N        0.72689    0.09860    0.03809    1.000
    N4139    N        0.72515    0.03993    0.07262    1.000
    Si4140   Si       0.75108    0.06206    0.10207    1.000
    Si4141   Si       0.69953    0.06361    0.04596    1.000
    N4142    N        0.73788    0.09639    0.12375    1.000
    N4143    N        0.69635    0.04627    0.00428    1.000
    Si4144   Si       0.70897    0.13841    0.04045    1.000
    Si4145   Si       0.73862    0.13763    0.10775    1.000
    Si4146   Si       0.73176    0.25540    0.10745    1.000
    N4147    N        0.74133    0.23351    0.01909    1.000
    N4148    N        0.73794    0.16510    0.02345    1.000
    N4149    N        0.70248    0.22340    0.10410    1.000
    N4150    N        0.70224    0.14777    0.08239    1.000
    Si4151   Si       0.75189    0.09871    0.21866    1.000
    Si4152   Si       0.75079    0.02446    0.22257    1.000
    Si4153   Si       0.72366    0.07581    0.16016    1.000
    N4154    N        0.70268    0.11055    0.17740    1.000
    N4155    N        0.75066    0.06243    0.19469    1.000
    N4156    N        0.69501    0.04669    0.14922    1.000
    Si4157   Si       0.71496    0.21044    0.21802    1.000
    Si4158   Si       0.72751    0.14562    0.17256    1.000
    Si4159   Si       0.70538    0.20044    0.14379    1.000
    N4160    N        0.74180    0.16937    0.13604    1.000
    N4161    N        0.74002    0.24616    0.20747    1.000
    N4162    N        0.70540    0.17827    0.18982    1.000
    N4163    N        0.73613    0.03643    0.32614    1.000
    N4164    N        0.72002    0.11552    0.34739    1.000
    Si4165   Si       0.70332    0.02395    0.34949    1.000
    Si4166   Si       0.73557    0.01949    0.28719    1.000
    N4167    N        0.71744    0.03911    0.25041    1.000
    N4168    N        0.72740    0.19124    0.34121    1.000
    Si4169   Si       0.71895    0.14988    0.27121    1.000
    Si4170   Si       0.74409    0.14957    0.33593    1.000
    N4171    N        0.73132    0.18892    0.25339    1.000
    N4172    N        0.74448    0.02440    0.41665    1.000
    Si4173   Si       0.72873    0.08777    0.38056    1.000
    N4174    N        0.72507    0.09741    0.42247    1.000
    Si4175   Si       0.70309    0.03574    0.42085    1.000
    Si4176   Si       0.74865    0.12703    0.44299    1.000
    N4177    N        0.69786    0.05688    0.37868    1.000
    N4178    N        0.73498    0.25420    0.43520    1.000
    N4179    N        0.73307    0.20638    0.48677    1.000
    N4180    N        0.69749    0.24010    0.37251    1.000
    Si4181   Si       0.72467    0.22513    0.40361    1.000
    N4182    N        0.70805    0.13793    0.46684    1.000
    N4183    N        0.74730    0.16932    0.42830    1.000
    Si4184   Si       0.71450    0.18078    0.45466    1.000
    Si4185   Si       0.75244    0.24436    0.47395    1.000
    N4186    N        0.71959    0.11091    0.24861    1.000
    N4187    N        0.71537    0.11793    0.53157    1.000
    N4188    N        0.71695    0.05179    0.52368    1.000
    N4189    N        0.71077    0.06384    0.59085    1.000
    Si4190   Si       0.70051    0.08026    0.55133    1.000
    Si4191   Si       0.73939    0.19874    0.52798    1.000
    Si4192   Si       0.72514    0.21812    0.59167    1.000
    N4193    N        0.70658    0.19721    0.55950    1.000
    N4194    N        0.71110    0.25843    0.60001    1.000
    Si4195   Si       0.70831    0.03554    0.62419    1.000
    N4196    N        0.74889    0.02198    0.63623    1.000
    Si4197   Si       0.72933    0.11453    0.68260    1.000
    N4198    N        0.72809    0.07149    0.68091    1.000
    N4199    N        0.70023    0.07183    0.74077    1.000
    Si4200   Si       0.71365    0.20322    0.66978    1.000
    N4201    N        0.69679    0.20315    0.62812    1.000
    N4202    N        0.70636    0.24701    0.67003    1.000
    N4203    N        0.73879    0.24249    0.74353    1.000
    N4204    N        0.70457    0.13837    0.65272    1.000
    N4205    N        0.71224    0.13530    0.71717    1.000
    N4206    N        0.71563    0.00497    0.72263    1.000
    Si4207   Si       0.73445    0.15856    0.74605    1.000
    N4208    N        0.72818    0.03338    0.85326    1.000
    Si4209   Si       0.70568    0.12212    0.81064    1.000
    Si4210   Si       0.73619    0.07596    0.85525    1.000
    N4211    N        0.72033    0.01685    0.78755    1.000
    Si4212   Si       0.72858    0.04111    0.75163    1.000
    N4213    N        0.73854    0.13313    0.78083    1.000
    Si4214   Si       0.72596    0.19882    0.99597    1.000
    Si4215   Si       0.72872    0.17009    0.93478    1.000
    N4216    N        0.70469    0.18848    0.76112    1.000
    N4217    N        0.71798    0.15589    0.83723    1.000
    Si4218   Si       0.72120    0.22440    0.77850    1.000
    N4219    N        0.75421    0.20475    0.80262    1.000
    N4220    N        0.73477    0.08010    0.94954    1.000
    Si4221   Si       0.73209    0.04855    0.98108    1.000
    Si4222   Si       0.69843    0.10352    0.94567    1.000
    N4223    N        0.70288    0.18350    0.90208    1.000
    N4224    N        0.70593    0.14350    0.96093    1.000
    N4225    N        0.73585    0.24761    0.89601    1.000
    N4226    N        0.74280    0.20563    0.95561    1.000
    Si4227   Si       0.75244    0.16233    0.81295    1.000
    N4228    N        0.73796    0.27831    0.07063    1.000
    Si4229   Si       0.71597    0.26604    0.03568    1.000
    N4230    N        0.72551    0.34964    0.11212    1.000
    N4231    N        0.69802    0.30405    0.01878    1.000
    N4232    N        0.73244    0.36206    0.99760    1.000
    N4233    N        0.74018    0.42708    0.22636    1.000
    Si4234   Si       0.72575    0.38596    0.03272    1.000
    Si4235   Si       0.72878    0.50031    0.08081    1.000
    N4236    N        0.70763    0.42607    0.02960    1.000
    Si4237   Si       0.73207    0.45929    0.01668    1.000
    N4238    N        0.72239    0.49808    0.03550    1.000
    N4239    N        0.72869    0.41669    0.11731    1.000
    Si4240   Si       0.72638    0.46814    0.23626    1.000
    N4241    N        0.73660    0.35440    0.23848    1.000
    Si4242   Si       0.71728    0.27247    0.17977    1.000
    N4243    N        0.71235    0.28620    0.13286    1.000
    Si4244   Si       0.73016    0.35065    0.19319    1.000
    Si4245   Si       0.74356    0.31701    0.13499    1.000
    N4246    N        0.74552    0.31182    0.17713    1.000
    N4247    N        0.72531    0.48829    0.13079    1.000
    N4248    N        0.71349    0.49268    0.20298    1.000
    N4249    N        0.70041    0.42095    0.17553    1.000
    Si4250   Si       0.74384    0.49688    0.17214    1.000
    Si4251   Si       0.74259    0.42143    0.18421    1.000
    Si4252   Si       0.71469    0.27390    0.30998    1.000
    N4253    N        0.71510    0.29108    0.26882    1.000
    N4254    N        0.71260    0.36003    0.34502    1.000
    Si4255   Si       0.74901    0.31966    0.26118    1.000
    Si4256   Si       0.74954    0.36294    0.32133    1.000
    N4257    N        0.75271    0.26272    0.32950    1.000
    N4258    N        0.73000    0.39262    0.29384    1.000
    Si4259   Si       0.71412    0.45706    0.35343    1.000
    N4260    N        0.72974    0.48357    0.31981    1.000
    N4261    N        0.74554    0.42827    0.35711    1.000
    Si4262   Si       0.72391    0.39323    0.25104    1.000
    N4263    N        0.70682    0.48353    0.38746    1.000
    Si4264   Si       0.71829    0.29390    0.43673    1.000
    Si4265   Si       0.73914    0.36606    0.43832    1.000
    N4266    N        0.74728    0.32496    0.44813    1.000
    N4267    N        0.70617    0.30340    0.39626    1.000
    N4268    N        0.70366    0.37019    0.41462    1.000
    Si4269   Si       0.69957    0.34344    0.38226    1.000
    N4270    N        0.73035    0.39637    0.46983    1.000
    N4271    N        0.72707    0.47264    0.47662    1.000
    Si4272   Si       0.72646    0.43760    0.45201    1.000
    N4273    N        0.71215    0.34655    0.51526    1.000
    Si4274   Si       0.73955    0.27608    0.53966    1.000
    Si4275   Si       0.74904    0.35072    0.53934    1.000
    N4276    N        0.69754    0.28327    0.53434    1.000
    N4277    N        0.74980    0.33195    0.62412    1.000
    N4278    N        0.71360    0.38338    0.61309    1.000
    Si4279   Si       0.70098    0.38647    0.49766    1.000
    Si4280   Si       0.71512    0.41030    0.57534    1.000
    N4281    N        0.74328    0.44633    0.57876    1.000
    Si4282   Si       0.70673    0.47368    0.58941    1.000
    N4283    N        0.71034    0.50143    0.55325    1.000
    N4284    N        0.69981    0.40773    0.53562    1.000
    N4285    N        0.72990    0.49404    0.61956    1.000
    N4286    N        0.69399    0.35114    0.72939    1.000
    Si4287   Si       0.70374    0.34177    0.62992    1.000
    N4288    N        0.71072    0.31944    0.66998    1.000
    Si4289   Si       0.72455    0.26394    0.70778    1.000
    N4290    N        0.71918    0.47556    0.68941    1.000
    Si4291   Si       0.71024    0.43191    0.69564    1.000
    N4292    N        0.75117    0.42058    0.68678    1.000
    N4293    N        0.73578    0.28685    0.83087    1.000
    Si4294   Si       0.71247    0.31883    0.75493    1.000
    N4295    N        0.74603    0.37800    0.75517    1.000
    Si4296   Si       0.70214    0.38745    0.75200    1.000
    Si4297   Si       0.70363    0.40640    0.82603    1.000
    N4298    N        0.73174    0.49638    0.81689    1.000
    Si4299   Si       0.70652    0.46565    0.80141    1.000
    N4300    N        0.72880    0.42936    0.79389    1.000
    N4301    N        0.73949    0.40500    0.85635    1.000
    Si4302   Si       0.75045    0.27712    0.86915    1.000
    N4303    N        0.71252    0.30661    0.95725    1.000
    N4304    N        0.71683    0.37050    0.92221    1.000
    Si4305   Si       0.71181    0.32695    0.91684    1.000
    Si4306   Si       0.74434    0.37307    0.95558    1.000
    N4307    N        0.74476    0.31372    0.89348    1.000
    Si4308   Si       0.73269    0.31849    0.99495    1.000
    Si4309   Si       0.71143    0.40084    0.89101    1.000
    Si4310   Si       0.74213    0.44680    0.94182    1.000
    N4311    N        0.72004    0.46485    0.97555    1.000
    N4312    N        0.71265    0.43915    0.91135    1.000
    N4313    N        0.71314    0.50303    0.88403    1.000
    Si4314   Si       0.75476    0.50455    0.89657    1.000
    Si4315   Si       0.71933    0.54119    0.02277    1.000
    N4316    N        0.75374    0.53642    0.08907    1.000
    N4317    N        0.72363    0.63662    0.08201    1.000
    N4318    N        0.75095    0.63297    0.01881    1.000
    Si4319   Si       0.72736    0.61928    0.12227    1.000
    N4320    N        0.70528    0.57943    0.12366    1.000
    Si4321   Si       0.74292    0.55675    0.12495    1.000
    N4322    N        0.74463    0.60359    0.18554    1.000
    Si4323   Si       0.73889    0.56300    0.19860    1.000
    N4324    N        0.75059    0.53815    0.16456    1.000
    Si4325   Si       0.73755    0.68594    0.16008    1.000
    N4326    N        0.70300    0.70764    0.14595    1.000
    Si4327   Si       0.72193    0.63450    0.20905    1.000
    N4328    N        0.70025    0.64207    0.14731    1.000
    Si4329   Si       0.75083    0.68073    0.24404    1.000
    N4330    N        0.73575    0.67527    0.20161    1.000
    N4331    N        0.69773    0.56067    0.21464    1.000
    N4332    N        0.73447    0.58750    0.30539    1.000
    Si4333   Si       0.74353    0.58297    0.34866    1.000
    N4334    N        0.72773    0.62076    0.36632    1.000
    Si4335   Si       0.69873    0.57112    0.29145    1.000
    N4336    N        0.69752    0.53137    0.27942    1.000
    N4337    N        0.71982    0.55170    0.36475    1.000
    N4338    N        0.73103    0.63871    0.25501    1.000
    N4339    N        0.73320    0.69616    0.34922    1.000
    Si4340   Si       0.72812    0.65486    0.33989    1.000
    Si4341   Si       0.70529    0.72691    0.33447    1.000
    N4342    N        0.72976    0.71744    0.25651    1.000
    Si4343   Si       0.74657    0.56819    0.44579    1.000
    Si4344   Si       0.72031    0.60629    0.40819    1.000
    N4345    N        0.72593    0.53173    0.43612    1.000
    Si4346   Si       0.73148    0.52055    0.39294    1.000
    N4347    N        0.71855    0.60052    0.45366    1.000
    N4348    N        0.74731    0.69865    0.46027    1.000
    Si4349   Si       0.72270    0.72845    0.43561    1.000
    N4350    N        0.74836    0.74198    0.40383    1.000
    Si4351   Si       0.75362    0.66823    0.49064    1.000
    Si4352   Si       0.70521    0.50901    0.46690    1.000
    Si4353   Si       0.75105    0.75482    0.24923    1.000
    Si4354   Si       0.72772    0.53421    0.53121    1.000
    N4355    N        0.74535    0.57030    0.61628    1.000
    N4356    N        0.74954    0.56790    0.54600    1.000
    N4357    N        0.70068    0.60796    0.57765    1.000
    Si4358   Si       0.71118    0.60170    0.61933    1.000
    N4359    N        0.69508    0.53478    0.50012    1.000
    Si4360   Si       0.71743    0.64045    0.55269    1.000
    N4361    N        0.72224    0.64309    0.50842    1.000
    N4362    N        0.73889    0.69248    0.60818    1.000
    N4363    N        0.74569    0.75449    0.57827    1.000
    Si4364   Si       0.69644    0.69502    0.60175    1.000
    Si4365   Si       0.72854    0.57379    0.72694    1.000
    N4366    N        0.74003    0.59603    0.69217    1.000
    N4367    N        0.74012    0.62915    0.63775    1.000
    N4368    N        0.69753    0.54522    0.71193    1.000
    Si4369   Si       0.72145    0.73356    0.71520    1.000
    Si4370   Si       0.73767    0.63907    0.68151    1.000
    N4371    N        0.70327    0.65686    0.69969    1.000
    Si4372   Si       0.75378    0.52866    0.62402    1.000
    Si4373   Si       0.71818    0.53785    0.82979    1.000
    Si4374   Si       0.74126    0.60338    0.79414    1.000
    N4375    N        0.71776    0.56999    0.86015    1.000
    N4376    N        0.74375    0.56046    0.80281    1.000
    N4377    N        0.72063    0.62777    0.82276    1.000
    N4378    N        0.71943    0.60531    0.75542    1.000
    Si4379   Si       0.69862    0.60848    0.85406    1.000
    Si4380   Si       0.73340    0.66928    0.82476    1.000
    Si4381   Si       0.74447    0.71957    0.76878    1.000
    N4382    N        0.70712    0.69874    0.84164    1.000
    N4383    N        0.70472    0.72422    0.75408    1.000
    N4384    N        0.75032    0.75526    0.79386    1.000
    N4385    N        0.75091    0.68025    0.78748    1.000
    N4386    N        0.70217    0.58141    0.92948    1.000
    N4387    N        0.71059    0.53469    0.98054    1.000
    Si4388   Si       0.73357    0.56263    0.95300    1.000
    Si4389   Si       0.72038    0.62113    0.92026    1.000
    Si4390   Si       0.70425    0.54882    0.89786    1.000
    N4391    N        0.74850    0.54439    0.91501    1.000
    Si4392   Si       0.73322    0.71312    0.87318    1.000
    Si4393   Si       0.71726    0.69138    0.94359    1.000
    N4394    N        0.74682    0.70725    0.91568    1.000
    N4395    N        0.71870    0.71602    0.98071    1.000
    N4396    N        0.70016    0.74800    0.88021    1.000
    N4397    N        0.72131    0.64923    0.95269    1.000
    Si4398   Si       0.71403    0.63840    0.99458    1.000
    N4399    N        0.71746    0.86781    0.07434    1.000
    N4400    N        0.71234    0.86980    0.00532    1.000
    Si4401   Si       0.71802    0.82756    0.00585    1.000
    N4402    N        0.74703    0.81735    0.03723    1.000
    Si4403   Si       0.71381    0.86491    0.11763    1.000
    N4404    N        0.72033    0.76221    0.10735    1.000
    Si4405   Si       0.75379    0.84337    0.07239    1.000
    N4406    N        0.75162    0.83857    0.11722    1.000
    N4407    N        0.73034    0.98808    0.03334    1.000
    N4408    N        0.73437    0.92202    0.03511    1.000
    N4409    N        0.70556    0.95986    0.08877    1.000
    Si4410   Si       0.70566    0.99922    0.07043    1.000
    Si4411   Si       0.74531    0.95182    0.06689    1.000
    Si4412   Si       0.70209    0.89221    0.04224    1.000
    Si4413   Si       0.69454    0.81739    0.17471    1.000
    N4414    N        0.73796    0.82393    0.18625    1.000
    Si4415   Si       0.74998    0.82813    0.23078    1.000
    N4416    N        0.72984    0.79058    0.24404    1.000
    Si4417   Si       0.71594    0.95477    0.18686    1.000
    N4418    N        0.72262    0.99138    0.21067    1.000
    N4419    N        0.70300    0.91650    0.20612    1.000
    N4420    N        0.71033    0.90519    0.13149    1.000
    N4421    N        0.74999    0.95689    0.15912    1.000
    Si4422   Si       0.73469    0.89940    0.22955    1.000
    Si4423   Si       0.74993    0.91986    0.13783    1.000
    Si4424   Si       0.68854    0.76382    0.07568    1.000
    N4425    N        0.72862    0.83224    0.31858    1.000
    Si4426   Si       0.70609    0.79477    0.31858    1.000
    Si4427   Si       0.71874    0.87053    0.29178    1.000
    N4428    N        0.71801    0.85203    0.25259    1.000
    N4429    N        0.73426    0.76255    0.32538    1.000
    Si4430   Si       0.73078    0.94632    0.29648    1.000
    N4431    N        0.71338    0.98220    0.28002    1.000
    N4432    N        0.73655    0.92469    0.33425    1.000
    N4433    N        0.71575    0.91430    0.26906    1.000
    Si4434   Si       0.70604    0.94578    0.35894    1.000
    N4435    N        0.71818    0.98590    0.36533    1.000
    N4436    N        0.71781    0.83123    0.47929    1.000
    N4437    N        0.72858    0.87916    0.42534    1.000
    N4438    N        0.73682    0.81312    0.40950    1.000
    Si4439   Si       0.72839    0.87352    0.46968    1.000
    Si4440   Si       0.71456    0.80293    0.44735    1.000
    N4441    N        0.71286    0.76189    0.45804    1.000
    Si4442   Si       0.69609    0.82342    0.38960    1.000
    N4443    N        0.72547    0.96530    0.45371    1.000
    N4444    N        0.70605    0.90841    0.48207    1.000
    Si4445   Si       0.72571    0.78671    0.60275    1.000
    Si4446   Si       0.70992    0.81881    0.51855    1.000
    N4447    N        0.75200    0.82193    0.60540    1.000
    N4448    N        0.75253    0.81015    0.52871    1.000
    N4449    N        0.69273    0.84996    0.54341    1.000
    N4450    N        0.73625    0.89461    0.64076    1.000
    N4451    N        0.71288    0.94578    0.58188    1.000
    N4452    N        0.74922    0.94600    0.52212    1.000
    Si4453   Si       0.71391    0.95192    0.49521    1.000
    Si4454   Si       0.69816    0.80318    0.73818    1.000
    Si4455   Si       0.74748    0.79017    0.67630    1.000
    N4456    N        0.74216    0.83437    0.66832    1.000
    Si4457   Si       0.73358    0.85863    0.70428    1.000
    N4458    N        0.72095    0.77525    0.64525    1.000
    N4459    N        0.72331    0.77945    0.71262    1.000
    Si4460   Si       0.73727    0.85277    0.62984    1.000
    Si4461   Si       0.71290    0.91239    0.74746    1.000
    Si4462   Si       0.71537    0.96167    0.62281    1.000
    N4463    N        0.73571    0.90363    0.71090    1.000
    Si4464   Si       0.74443    0.92926    0.67322    1.000
    N4465    N        0.70233    0.94090    0.65942    1.000
    N4466    N        0.71589    0.81149    0.77638    1.000
    Si4467   Si       0.71768    0.78366    0.80837    1.000
    N4468    N        0.73931    0.79457    0.84450    1.000
    Si4469   Si       0.74779    0.84212    0.77399    1.000
    N4470    N        0.74324    0.86175    0.86678    1.000
    N4471    N        0.72670    0.88067    0.77572    1.000
    Si4472   Si       0.72997    0.90974    0.80743    1.000
    N4473    N        0.71735    0.94139    0.77892    1.000
    Si4474   Si       0.73944    0.97793    0.78575    1.000
    N4475    N        0.70105    0.90387    0.84010    1.000
    Si4476   Si       0.73399    0.82016    0.88012    1.000
    N4477    N        0.72290    0.81291    0.96396    1.000
    N4478    N        0.72072    0.93730    0.96990    1.000
    Si4479   Si       0.71607    0.97616    0.99253    1.000
    N4480    N        0.73583    0.00666    0.96548    1.000
    Si4481   Si       0.70260    0.92848    0.93182    1.000
    Si4482   Si       0.71869    0.89585    0.87863    1.000
    N4483    N        0.72607    0.93499    0.89469    1.000
    N4484    N        0.75810    0.97396    0.82436    1.000
    N4485    N        0.69582    0.88654    0.91901    1.000
    Si4486   Si       0.73824    0.90365    0.99576    1.000
    N4487    N        0.78350    0.07002    0.07159    1.000
    N4488    N        0.79610    0.11682    0.02412    1.000
    Si4489   Si       0.76830    0.08566    0.03454    1.000
    N4490    N        0.76451    0.04792    0.01097    1.000
    Si4491   Si       0.76086    0.01644    0.04625    1.000
    N4492    N        0.77508    0.14335    0.08312    1.000
    Si4493   Si       0.77711    0.15409    0.04117    1.000
    Si4494   Si       0.78394    0.23061    0.02659    1.000
    N4495    N        0.79876    0.19147    0.03714    1.000
    N4496    N        0.79831    0.25938    0.05573    1.000
    Si4497   Si       0.78195    0.23806    0.20703    1.000
    N4498    N        0.78765    0.01058    0.19879    1.000
    Si4499   Si       0.78621    0.04658    0.17181    1.000
    N4500    N        0.77135    0.03863    0.13407    1.000
    N4501    N        0.78871    0.09763    0.24240    1.000
    N4502    N        0.76165    0.13067    0.19248    1.000
    Si4503   Si       0.77940    0.19543    0.14335    1.000
    Si4504   Si       0.79504    0.15648    0.20483    1.000
    N4505    N        0.76593    0.23453    0.12623    1.000
    N4506    N        0.79847    0.22405    0.24375    1.000
    N4507    N        0.78212    0.19494    0.18834    1.000
    Si4508   Si       0.77513    0.04672    0.34073    1.000
    Si4509   Si       0.79259    0.12617    0.27373    1.000
    N4510    N        0.80950    0.04852    0.31374    1.000
    N4511    N        0.77199    0.01548    0.26354    1.000
    N4512    N        0.76947    0.07851    0.37139    1.000
    Si4513   Si       0.77207    0.19695    0.26818    1.000
    N4514    N        0.78096    0.15324    0.36003    1.000
    N4515    N        0.78658    0.20993    0.30712    1.000
    Si4516   Si       0.76013    0.22193    0.34098    1.000
    N4517    N        0.75448    0.14349    0.29518    1.000
    N4518    N        0.79932    0.16291    0.24894    1.000
    N4519    N        0.76631    0.05851    0.47652    1.000
    Si4520   Si       0.80252    0.09195    0.39615    1.000
    N4521    N        0.77209    0.12405    0.47961    1.000
    Si4522   Si       0.77785    0.04032    0.44127    1.000
    N4523    N        0.79515    0.12668    0.42177    1.000
    Si4524   Si       0.81361    0.12923    0.46402    1.000
    N4525    N        0.81141    0.05946    0.42258    1.000
    N4526    N        0.76485    0.21975    0.38469    1.000
    Si4527   Si       0.78510    0.16606    0.40272    1.000
    Si4528   Si       0.79447    0.23345    0.41413    1.000
    N4529    N        0.79260    0.23658    0.46010    1.000
    Si4530   Si       0.81244    0.01579    0.28139    1.000
    N4531    N        0.77595    0.09077    0.53809    1.000
    N4532    N        0.79101    0.02498    0.52379    1.000
    Si4533   Si       0.76010    0.05571    0.51700    1.000
    N4534    N        0.80493    0.05142    0.58652    1.000
    Si4535   Si       0.80740    0.01355    0.56186    1.000
    Si4536   Si       0.75744    0.12593    0.51999    1.000
    N4537    N        0.80454    0.11902    0.60399    1.000
    Si4538   Si       0.80678    0.09055    0.56866    1.000
    Si4539   Si       0.79048    0.22854    0.57414    1.000
    N4540    N        0.76923    0.16807    0.53087    1.000
    N4541    N        0.76620    0.20959    0.60585    1.000
    N4542    N        0.75398    0.23584    0.54878    1.000
    Si4543   Si       0.80266    0.10960    0.64811    1.000
    N4544    N        0.79918    0.06486    0.65135    1.000
    Si4545   Si       0.76315    0.04737    0.67008    1.000
    N4546    N        0.77751    0.02996    0.70526    1.000
    N4547    N        0.76954    0.12319    0.67142    1.000
    Si4548   Si       0.80259    0.04262    0.73840    1.000
    N4549    N        0.81214    0.25496    0.72574    1.000
    Si4550   Si       0.77811    0.16297    0.68863    1.000
    Si4551   Si       0.79632    0.20306    0.63844    1.000
    N4552    N        0.77466    0.16580    0.73242    1.000
    Si4553   Si       0.81279    0.17585    0.52256    1.000
    N4554    N        0.81377    0.24131    0.65534    1.000
    N4555    N        0.75626    0.19580    0.67123    1.000
    N4556    N        0.79999    0.02782    0.84615    1.000
    Si4557   Si       0.76781    0.10006    0.77947    1.000
    Si4558   Si       0.78771    0.11035    0.85171    1.000
    N4559    N        0.76793    0.06180    0.75984    1.000
    N4560    N        0.80563    0.12257    0.77374    1.000
    N4561    N        0.76223    0.09137    0.82308    1.000
    N4562    N        0.78496    0.15215    0.83673    1.000
    Si4563   Si       0.79272    0.22402    0.80337    1.000
    Si4564   Si       0.81004    0.16301    0.75689    1.000
    N4565    N        0.79295    0.21474    0.90719    1.000
    N4566    N        0.80434    0.23800    0.98908    1.000
    N4567    N        0.80948    0.09709    0.94043    1.000
    Si4568   Si       0.76769    0.10542    0.92659    1.000
    N4569    N        0.80221    0.02205    0.95206    1.000
    N4570    N        0.76181    0.09687    0.88506    1.000
    Si4571   Si       0.79993    0.02707    0.99551    1.000
    Si4572   Si       0.80134    0.17307    0.91714    1.000
    N4573    N        0.76484    0.15031    0.92561    1.000
    Si4574   Si       0.76264    0.23534    0.93141    1.000
    Si4575   Si       0.77584    0.29558    0.05420    1.000
    Si4576   Si       0.79719    0.37385    0.04842    1.000
    N4577    N        0.80459    0.33082    0.05646    1.000
    N4578    N        0.76525    0.29636    0.01155    1.000
    Si4579   Si       0.81063    0.33170    0.10177    1.000
    N4580    N        0.78150    0.30326    0.11679    1.000
    N4581    N        0.75846    0.38440    0.06229    1.000
    N4582    N        0.80146    0.37981    0.00597    1.000
    N4583    N        0.77525    0.44837    0.01900    1.000
    Si4584   Si       0.79118    0.47173    0.05209    1.000
    N4585    N        0.75723    0.46708    0.07998    1.000
    N4586    N        0.79323    0.43095    0.12267    1.000
    N4587    N        0.79076    0.36570    0.12235    1.000
    N4588    N        0.80944    0.34026    0.18485    1.000
    Si4589   Si       0.79612    0.26578    0.13469    1.000
    N4590    N        0.79794    0.26718    0.17893    1.000
    N4591    N        0.77931    0.30265    0.23801    1.000
    Si4592   Si       0.78782    0.30648    0.19705    1.000
    Si4593   Si       0.79628    0.37756    0.16498    1.000
    N4594    N        0.76532    0.45848    0.17021    1.000
    Si4595   Si       0.80635    0.44629    0.16133    1.000
    Si4596   Si       0.75357    0.38272    0.10682    1.000
    Si4597   Si       0.75455    0.45177    0.12139    1.000
    N4598    N        0.75560    0.38216    0.17841    1.000
    Si4599   Si       0.78544    0.29372    0.32154    1.000
    N4600    N        0.76198    0.32551    0.30210    1.000
    N4601    N        0.81077    0.31415    0.34942    1.000
    N4602    N        0.78725    0.38152    0.32733    1.000
    Si4603   Si       0.76875    0.48207    0.29733    1.000
    N4604    N        0.79652    0.44963    0.30514    1.000
    Si4605   Si       0.78328    0.42389    0.33734    1.000
    N4606    N        0.75966    0.48795    0.25436    1.000
    N4607    N        0.80380    0.42633    0.37482    1.000
    Si4608   Si       0.77350    0.31340    0.48024    1.000
    N4609    N        0.76912    0.37834    0.40933    1.000
    N4610    N        0.81295    0.30155    0.46488    1.000
    N4611    N        0.75962    0.27769    0.49926    1.000
    Si4612   Si       0.76586    0.41784    0.39342    1.000
    Si4613   Si       0.78706    0.47929    0.42736    1.000
    N4614    N        0.79559    0.48617    0.46890    1.000
    N4615    N        0.77387    0.51029    0.39715    1.000
    N4616    N        0.76127    0.44461    0.42606    1.000
    Si4617   Si       0.77698    0.30909    0.60039    1.000
    N4618    N        0.79783    0.26793    0.59135    1.000
    N4619    N        0.77891    0.34774    0.50941    1.000
    Si4620   Si       0.75839    0.37129    0.60802    1.000
    N4621    N        0.75323    0.31187    0.56198    1.000
    N4622    N        0.75644    0.38554    0.56533    1.000
    N4623    N        0.77636    0.44151    0.51622    1.000
    Si4624   Si       0.77073    0.47165    0.60501    1.000
    Si4625   Si       0.77772    0.42488    0.55680    1.000
    N4626    N        0.80731    0.44614    0.58477    1.000
    Si4627   Si       0.76395    0.47745    0.49805    1.000
    Si4628   Si       0.75664    0.31696    0.66966    1.000
    N4629    N        0.79404    0.29870    0.64975    1.000
    N4630    N        0.76209    0.28201    0.70044    1.000
    N4631    N        0.77125    0.35111    0.69494    1.000
    Si4632   Si       0.80514    0.27376    0.68589    1.000
    Si4633   Si       0.77275    0.34694    0.73819    1.000
    N4634    N        0.78955    0.38766    0.63103    1.000
    Si4635   Si       0.77379    0.26891    0.74530    1.000
    N4636    N        0.78340    0.45827    0.64515    1.000
    Si4637   Si       0.78129    0.39122    0.67490    1.000
    Si4638   Si       0.76243    0.46327    0.68272    1.000
    N4639    N        0.78249    0.48718    0.71326    1.000
    Si4640   Si       0.76558    0.30011    0.80282    1.000
    N4641    N        0.79566    0.32851    0.81868    1.000
    N4642    N        0.78458    0.26325    0.78848    1.000
    N4643    N        0.75621    0.31247    0.75874    1.000
    N4644    N        0.79316    0.27398    0.86469    1.000
    N4645    N        0.80774    0.36800    0.75775    1.000
    N4646    N        0.79195    0.43356    0.75583    1.000
    N4647    N        0.79287    0.49941    0.78556    1.000
    N4648    N        0.78626    0.39735    0.81306    1.000
    Si4649   Si       0.77324    0.49548    0.82654    1.000
    Si4650   Si       0.78233    0.41619    0.85008    1.000
    N4651    N        0.78959    0.45804    0.84577    1.000
    Si4652   Si       0.76507    0.41000    0.77854    1.000
    Si4653   Si       0.80138    0.47447    0.74964    1.000
    Si4654   Si       0.79483    0.28278    0.98157    1.000
    Si4655   Si       0.78031    0.31446    0.91959    1.000
    N4656    N        0.77575    0.34259    0.95119    1.000
    N4657    N        0.78016    0.27695    0.94129    1.000
    Si4658   Si       0.81047    0.35106    0.97481    1.000
    Si4659   Si       0.81225    0.47310    0.93956    1.000
    N4660    N        0.77155    0.47561    0.92441    1.000
    Si4661   Si       0.79253    0.41944    0.98733    1.000
    N4662    N        0.76041    0.41175    0.95846    1.000
    Si4663   Si       0.81409    0.31115    0.85427    1.000
    Si4664   Si       0.78534    0.54396    0.05832    1.000
    Si4665   Si       0.80149    0.60573    0.10412    1.000
    Si4666   Si       0.77512    0.59799    0.00800    1.000
    N4667    N        0.80689    0.51088    0.03945    1.000
    N4668    N        0.75841    0.56267    0.02813    1.000
    N4669    N        0.81186    0.57398    0.07499    1.000
    N4670    N        0.79187    0.63847    0.07471    1.000
    Si4671   Si       0.78852    0.72462    0.05499    1.000
    N4672    N        0.77565    0.74981    0.01999    1.000
    N4673    N        0.79506    0.75236    0.08729    1.000
    N4674    N        0.76257    0.69457    0.07426    1.000
    Si4675   Si       0.77941    0.68434    0.11333    1.000
    Si4676   Si       0.76177    0.75219    0.11569    1.000
    Si4677   Si       0.75577    0.65122    0.05685    1.000
    N4678    N        0.76538    0.59357    0.12249    1.000
    Si4679   Si       0.77989    0.61841    0.16168    1.000
    N4680    N        0.76908    0.55892    0.22876    1.000
    N4681    N        0.79767    0.62827    0.20037    1.000
    Si4682   Si       0.79826    0.59251    0.22837    1.000
    Si4683   Si       0.78599    0.74361    0.17224    1.000
    N4684    N        0.76266    0.65372    0.14007    1.000
    N4685    N        0.76842    0.71608    0.14152    1.000
    N4686    N        0.79372    0.68345    0.24761    1.000
    N4687    N        0.77827    0.74413    0.21370    1.000
    N4688    N        0.79764    0.60757    0.26672    1.000
    N4689    N        0.78439    0.52423    0.29533    1.000
    N4690    N        0.79084    0.57910    0.34445    1.000
    Si4691   Si       0.79947    0.62483    0.33603    1.000
    Si4692   Si       0.75947    0.61705    0.28409    1.000
    Si4693   Si       0.78288    0.52444    0.25073    1.000
    N4694    N        0.76522    0.64459    0.31784    1.000
    N4695    N        0.79491    0.73164    0.34872    1.000
    N4696    N        0.78835    0.75373    0.27702    1.000
    N4697    N        0.80791    0.62879    0.38043    1.000
    Si4698   Si       0.80293    0.60887    0.47550    1.000
    N4699    N        0.77899    0.57317    0.47379    1.000
    Si4700   Si       0.79723    0.58750    0.38728    1.000
    N4701    N        0.75880    0.58476    0.40585    1.000
    N4702    N        0.79000    0.68956    0.40316    1.000
    Si4703   Si       0.78908    0.68889    0.44728    1.000
    N4704    N        0.78813    0.65047    0.46646    1.000
    Si4705   Si       0.80861    0.75831    0.48275    1.000
    Si4706   Si       0.76619    0.71410    0.37527    1.000
    Si4707   Si       0.80632    0.72597    0.24710    1.000
    Si4708   Si       0.78102    0.56150    0.51425    1.000
    Si4709   Si       0.76611    0.58673    0.57978    1.000
    N4710    N        0.76388    0.51798    0.51213    1.000
    N4711    N        0.80301    0.60752    0.52100    1.000
    N4712    N        0.78642    0.51334    0.60021    1.000
    N4713    N        0.80929    0.57548    0.58281    1.000
    N4714    N        0.75915    0.63061    0.57091    1.000
    N4715    N        0.80034    0.66044    0.62415    1.000
    Si4716   Si       0.79212    0.64291    0.54260    1.000
    Si4717   Si       0.76356    0.72764    0.60706    1.000
    N4718    N        0.78738    0.74813    0.51922    1.000
    N4719    N        0.77588    0.67927    0.52638    1.000
    N4720    N        0.79984    0.71660    0.58336    1.000
    Si4721   Si       0.79986    0.71308    0.53943    1.000
    Si4722   Si       0.76011    0.65532    0.60915    1.000
    Si4723   Si       0.77889    0.53085    0.70457    1.000
    N4724    N        0.80044    0.60013    0.65917    1.000
    N4725    N        0.76513    0.53932    0.66592    1.000
    N4726    N        0.76161    0.54926    0.73880    1.000
    Si4727   Si       0.76137    0.58216    0.65511    1.000
    Si4728   Si       0.79209    0.69319    0.71337    1.000
    N4729    N        0.81167    0.66699    0.74308    1.000
    N4730    N        0.77856    0.73933    0.64426    1.000
    Si4731   Si       0.80386    0.64387    0.66217    1.000
    N4732    N        0.77357    0.66474    0.68585    1.000
    N4733    N        0.76047    0.72001    0.72849    1.000
    N4734    N        0.78091    0.61824    0.78541    1.000
    N4735    N        0.78499    0.59624    0.84382    1.000
    N4736    N        0.77137    0.52274    0.86077    1.000
    Si4737   Si       0.77537    0.53960    0.77817    1.000
    Si4738   Si       0.80930    0.59437    0.80747    1.000
    Si4739   Si       0.78019    0.63131    0.86990    1.000
    Si4740   Si       0.78898    0.65978    0.78004    1.000
    Si4741   Si       0.79801    0.69534    0.84803    1.000
    N4742    N        0.77009    0.72954    0.85391    1.000
    N4743    N        0.76196    0.66832    0.85663    1.000
    Si4744   Si       0.77040    0.56466    0.87681    1.000
    N4745    N        0.75863    0.61296    0.90133    1.000
    N4746    N        0.76526    0.58836    0.96563    1.000
    Si4747   Si       0.78830    0.59874    0.93106    1.000
    N4748    N        0.80591    0.57284    0.89975    1.000
    Si4749   Si       0.78321    0.72523    0.93034    1.000
    N4750    N        0.79309    0.70647    0.96754    1.000
    Si4751   Si       0.75954    0.73217    0.98364    1.000
    N4752    N        0.81436    0.67558    0.81303    1.000
    Si4753   Si       0.78169    0.79257    0.02298    1.000
    N4754    N        0.78943    0.86666    0.06385    1.000
    N4755    N        0.76541    0.99080    0.08397    1.000
    Si4756   Si       0.80133    0.90563    0.08080    1.000
    N4757    N        0.76829    0.92630    0.09746    1.000
    N4758    N        0.79861    0.99906    0.02702    1.000
    Si4759   Si       0.79428    0.00737    0.11132    1.000
    Si4760   Si       0.76653    0.82095    0.15338    1.000
    N4761    N        0.77763    0.77903    0.14858    1.000
    N4762    N        0.76883    0.87083    0.22242    1.000
    N4763    N        0.80705    0.83480    0.15906    1.000
    Si4764   Si       0.78642    0.97183    0.17545    1.000
    N4765    N        0.77830    0.89825    0.16161    1.000
    N4766    N        0.76149    0.93401    0.22243    1.000
    N4767    N        0.81298    0.90468    0.24675    1.000
    Si4768   Si       0.79474    0.90514    0.20393    1.000
    N4769    N        0.81743    0.93148    0.04933    1.000
    Si4770   Si       0.77095    0.84004    0.32768    1.000
    N4771    N        0.79367    0.80340    0.31893    1.000
    N4772    N        0.77125    0.87329    0.29744    1.000
    Si4773   Si       0.79636    0.86292    0.25893    1.000
    Si4774   Si       0.80711    0.79317    0.27624    1.000
    N4775    N        0.77899    0.85595    0.36833    1.000
    N4776    N        0.78685    0.82101    0.25245    1.000
    Si4777   Si       0.77748    0.75966    0.32025    1.000
    N4778    N        0.80554    0.91900    0.34785    1.000
    Si4779   Si       0.77535    0.91222    0.31784    1.000
    N4780    N        0.77375    0.94331    0.28847    1.000
    Si4781   Si       0.79539    0.94486    0.25017    1.000
    N4782    N        0.78962    0.01293    0.36171    1.000
    Si4783   Si       0.81004    0.82244    0.45458    1.000
    N4784    N        0.78637    0.78625    0.45428    1.000
    N4785    N        0.79070    0.85802    0.43762    1.000
    Si4786   Si       0.76758    0.77917    0.41111    1.000
    N4787    N        0.80369    0.78625    0.38901    1.000
    Si4788   Si       0.75896    0.85141    0.40693    1.000
    N4789    N        0.77244    0.96095    0.40094    1.000
    Si4790   Si       0.76680    0.96195    0.44338    1.000
    N4791    N        0.78335    0.92632    0.46331    1.000
    N4792    N        0.78931    0.99749    0.45633    1.000
    Si4793   Si       0.75598    0.99782    0.38521    1.000
    Si4794   Si       0.80713    0.94305    0.38459    1.000
    Si4795   Si       0.81156    0.89611    0.44847    1.000
    Si4796   Si       0.81188    0.00595    0.49167    1.000
    Si4797   Si       0.79446    0.82711    0.59707    1.000
    Si4798   Si       0.78286    0.84283    0.52038    1.000
    Si4799   Si       0.76802    0.77422    0.54809    1.000
    N4800    N        0.79900    0.85376    0.56017    1.000
    N4801    N        0.79922    0.79086    0.57241    1.000
    N4802    N        0.76080    0.87559    0.50104    1.000
    N4803    N        0.79564    0.91085    0.66703    1.000
    Si4804   Si       0.75468    0.94768    0.56724    1.000
    Si4805   Si       0.77648    0.91679    0.50760    1.000
    N4806    N        0.77591    0.98559    0.57802    1.000
    N4807    N        0.78278    0.91747    0.58377    1.000
    Si4808   Si       0.77777    0.99207    0.62107    1.000
    N4809    N        0.78950    0.86553    0.62716    1.000
    N4810    N        0.78866    0.78932    0.68916    1.000
    Si4811   Si       0.79865    0.82089    0.71568    1.000
    N4812    N        0.76334    0.83841    0.73301    1.000
    Si4813   Si       0.77549    0.90758    0.62655    1.000
    Si4814   Si       0.81008    0.94330    0.69117    1.000
    Si4815   Si       0.75625    0.99426    0.71565    1.000
    N4816    N        0.76923    0.96081    0.69322    1.000
    N4817    N        0.75851    0.95466    0.63153    1.000
    N4818    N        0.78186    0.84201    0.80063    1.000
    Si4819   Si       0.77817    0.86568    0.83676    1.000
    N4820    N        0.80960    0.86251    0.86440    1.000
    Si4821   Si       0.77077    0.76651    0.83059    1.000
    N4822    N        0.81104    0.77749    0.81447    1.000
    N4823    N        0.76898    0.90610    0.82398    1.000
    Si4824   Si       0.78975    0.94358    0.82910    1.000
    N4825    N        0.77026    0.98256    0.75598    1.000
    N4826    N        0.80096    0.94594    0.87053    1.000
    Si4827   Si       0.76336    0.00820    0.85486    1.000
    Si4828   Si       0.76866    0.94529    0.90014    1.000
    N4829    N        0.78589    0.81200    0.98446    1.000
    Si4830   Si       0.78710    0.85796    0.90354    1.000
    Si4831   Si       0.80355    0.85219    0.97827    1.000
    N4832    N        0.76472    0.81817    0.91074    1.000
    Si4833   Si       0.76119    0.80176    0.95084    1.000
    N4834    N        0.76379    0.75903    0.95017    1.000
    N4835    N        0.77696    0.89807    0.91263    1.000
    Si4836   Si       0.79105    0.91200    0.95022    1.000
    Si4837   Si       0.76680    0.00097    0.93618    1.000
    N4838    N        0.77575    0.88780    0.98146    1.000
    N4839    N        0.76109    0.99194    0.89506    1.000
    N4840    N        0.78382    0.95711    0.94109    1.000
    Si4841   Si       0.81206    0.97053    0.76022    1.000
    N4842    N        0.85018    0.08175    0.05312    1.000
    Si4843   Si       0.83283    0.09552    0.01561    1.000
    N4844    N        0.82792    0.03051    0.09676    1.000
    Si4845   Si       0.82464    0.07225    0.08599    1.000
    N4846    N        0.82585    0.10300    0.11891    1.000
    Si4847   Si       0.86658    0.01192    0.09316    1.000
    N4848    N        0.84431    0.15237    0.07323    1.000
    Si4849   Si       0.84011    0.18515    0.04567    1.000
    N4850    N        0.85389    0.21816    0.06909    1.000
    N4851    N        0.85873    0.19266    0.00841    1.000
    N4852    N        0.86318    0.09543    0.23452    1.000
    Si4853   Si       0.83905    0.10170    0.16025    1.000
    Si4854   Si       0.82239    0.07770    0.22586    1.000
    N4855    N        0.81941    0.07172    0.18335    1.000
    N4856    N        0.83362    0.26185    0.11672    1.000
    N4857    N        0.81822    0.17662    0.13493    1.000
    N4858    N        0.85828    0.18818    0.21009    1.000
    Si4859   Si       0.86771    0.13652    0.22219    1.000
    N4860    N        0.83409    0.13604    0.18694    1.000
    Si4861   Si       0.85518    0.17335    0.16353    1.000
    Si4862   Si       0.81485    0.14348    0.10294    1.000
    Si4863   Si       0.83843    0.25792    0.07275    1.000
    Si4864   Si       0.83822    0.07991    0.32341    1.000
    N4865    N        0.83195    0.09874    0.36512    1.000
    N4866    N        0.86622    0.02683    0.36174    1.000
    N4867    N        0.82001    0.11507    0.30533    1.000
    Si4868   Si       0.87144    0.05945    0.25805    1.000
    N4869    N        0.81675    0.19403    0.41559    1.000
    N4870    N        0.86428    0.15623    0.26360    1.000
    Si4871   Si       0.81744    0.13631    0.34394    1.000
    N4872    N        0.85360    0.22147    0.27574    1.000
    N4873    N        0.84396    0.23384    0.34175    1.000
    N4874    N        0.84964    0.16300    0.33739    1.000
    Si4875   Si       0.82191    0.23610    0.30324    1.000
    Si4876   Si       0.86929    0.19796    0.35044    1.000
    Si4877   Si       0.83755    0.19037    0.24967    1.000
    Si4878   Si       0.84871    0.06035    0.44676    1.000
    N4879    N        0.84799    0.10360    0.46056    1.000
    N4880    N        0.84571    0.03079    0.47688    1.000
    N4881    N        0.87554    0.06521    0.30245    1.000
    N4882    N        0.82234    0.16787    0.48097    1.000
    Si4883   Si       0.84213    0.19314    0.45022    1.000
    Si4884   Si       0.85595    0.25071    0.37916    1.000
    N4885    N        0.85809    0.23327    0.45898    1.000
    N4886    N        0.83217    0.04102    0.24770    1.000
    N4887    N        0.84814    0.08803    0.54979    1.000
    N4888    N        0.86769    0.05321    0.61193    1.000
    N4889    N        0.84966    0.01238    0.55993    1.000
    Si4890   Si       0.86733    0.05245    0.56913    1.000
    Si4891   Si       0.87038    0.12481    0.53545    1.000
    N4892    N        0.82958    0.19476    0.60549    1.000
    Si4893   Si       0.83291    0.15249    0.59182    1.000
    N4894    N        0.83839    0.15161    0.54866    1.000
    Si4895   Si       0.85556    0.23511    0.53712    1.000
    N4896    N        0.81739    0.21438    0.54177    1.000
    N4897    N        0.87002    0.13670    0.60928    1.000
    N4898    N        0.84257    0.16037    0.72665    1.000
    Si4899   Si       0.86836    0.21030    0.60348    1.000
    N4900    N        0.87147    0.24497    0.57796    1.000
    Si4901   Si       0.82564    0.04612    0.62507    1.000
    Si4902   Si       0.85603    0.08100    0.69737    1.000
    N4903    N        0.83282    0.07703    0.73377    1.000
    N4904    N        0.84382    0.11053    0.66935    1.000
    Si4905   Si       0.84355    0.14931    0.68612    1.000
    Si4906   Si       0.85649    0.25469    0.71938    1.000
    N4907    N        0.87334    0.21746    0.70696    1.000
    N4908    N        0.81282    0.17030    0.66300    1.000
    N4909    N        0.84185    0.06257    0.79998    1.000
    Si4910   Si       0.83847    0.09476    0.77403    1.000
    Si4911   Si       0.83564    0.05163    0.84329    1.000
    N4912    N        0.82614    0.09252    0.85937    1.000
    Si4913   Si       0.85915    0.02787    0.77803    1.000
    N4914    N        0.86547    0.02909    0.86505    1.000
    N4915    N        0.82711    0.01090    0.75457    1.000
    Si4916   Si       0.82179    0.17327    0.84848    1.000
    Si4917   Si       0.85307    0.20756    0.80830    1.000
    N4918    N        0.85833    0.16745    0.82603    1.000
    N4919    N        0.81964    0.19795    0.77959    1.000
    N4920    N        0.81842    0.21456    0.83929    1.000
    Si4921   Si       0.85552    0.12008    0.87894    1.000
    Si4922   Si       0.82818    0.05964    0.95069    1.000
    Si4923   Si       0.84112    0.13056    0.94988    1.000
    N4924    N        0.85965    0.11642    0.98852    1.000
    N4925    N        0.86611    0.04837    0.93467    1.000
    N4926    N        0.86912    0.11517    0.91963    1.000
    N4927    N        0.82800    0.05974    0.99381    1.000
    Si4928   Si       0.81543    0.23843    0.87538    1.000
    N4929    N        0.85838    0.24794    0.88795    1.000
    N4930    N        0.86493    0.23265    0.96153    1.000
    N4931    N        0.82975    0.15605    0.88625    1.000
    N4932    N        0.82437    0.17165    0.95334    1.000
    Si4933   Si       0.83245    0.20742    0.97704    1.000
    Si4934   Si       0.87200    0.01458    0.90591    1.000
    Si4935   Si       0.83951    0.31939    0.02982    1.000
    N4936    N        0.85334    0.33721    0.10509    1.000
    N4937    N        0.85747    0.28199    0.04238    1.000
    Si4938   Si       0.86710    0.36642    0.07380    1.000
    N4939    N        0.86919    0.35218    0.03190    1.000
    N4940    N        0.82956    0.38949    0.07210    1.000
    N4941    N        0.81946    0.40981    0.17942    1.000
    Si4942   Si       0.84972    0.48944    0.24527    1.000
    Si4943   Si       0.86433    0.47786    0.07192    1.000
    Si4944   Si       0.82561    0.42234    0.09788    1.000
    N4945    N        0.82738    0.45762    0.07246    1.000
    N4946    N        0.86763    0.48017    0.02609    1.000
    Si4947   Si       0.84827    0.34737    0.20177    1.000
    N4948    N        0.85495    0.31029    0.22649    1.000
    N4949    N        0.85240    0.38031    0.23035    1.000
    N4950    N        0.83676    0.47553    0.15449    1.000
    N4951    N        0.83576    0.44993    0.23980    1.000
    Si4952   Si       0.84544    0.41822    0.21347    1.000
    N4953    N        0.86252    0.42477    0.12142    1.000
    N4954    N        0.83321    0.34335    0.28807    1.000
    N4955    N        0.85711    0.37187    0.34775    1.000
    Si4956   Si       0.84268    0.30314    0.26885    1.000
    Si4957   Si       0.86068    0.37129    0.27067    1.000
    Si4958   Si       0.82181    0.35322    0.32917    1.000
    N4959    N        0.81692    0.27900    0.29374    1.000
    Si4960   Si       0.83483    0.44370    0.28403    1.000
    N4961    N        0.85851    0.40900    0.29284    1.000
    N4962    N        0.85662    0.48199    0.28932    1.000
    Si4963   Si       0.85954    0.48788    0.33361    1.000
    N4964    N        0.86192    0.44687    0.35054    1.000
    Si4965   Si       0.86725    0.36852    0.39076    1.000
    Si4966   Si       0.83193    0.30439    0.38432    1.000
    Si4967   Si       0.83887    0.33317    0.45122    1.000
    N4968    N        0.83063    0.37160    0.46864    1.000
    N4969    N        0.84153    0.33759    0.40848    1.000
    N4970    N        0.81994    0.26451    0.39954    1.000
    N4971    N        0.85973    0.40776    0.40738    1.000
    N4972    N        0.84547    0.43887    0.46784    1.000
    Si4973   Si       0.84217    0.44226    0.38848    1.000
    Si4974   Si       0.85777    0.47540    0.44596    1.000
    Si4975   Si       0.85748    0.40205    0.45061    1.000
    N4976    N        0.82909    0.47917    0.41254    1.000
    Si4977   Si       0.82542    0.25908    0.47584    1.000
    N4978    N        0.84398    0.33377    0.52555    1.000
    Si4979   Si       0.84863    0.33625    0.56678    1.000
    N4980    N        0.84738    0.26845    0.51297    1.000
    Si4981   Si       0.81781    0.36635    0.50853    1.000
    N4982    N        0.85930    0.37549    0.58346    1.000
    Si4983   Si       0.83080    0.37019    0.61886    1.000
    N4984    N        0.81126    0.33737    0.59124    1.000
    Si4985   Si       0.86655    0.40518    0.55354    1.000
    N4986    N        0.82890    0.47832    0.52921    1.000
    Si4987   Si       0.84278    0.47464    0.56934    1.000
    N4988    N        0.82798    0.40517    0.52968    1.000
    Si4989   Si       0.82051    0.44121    0.50472    1.000
    N4990    N        0.85878    0.29384    0.62267    1.000
    Si4991   Si       0.82143    0.27308    0.62576    1.000
    N4992    N        0.85139    0.28664    0.69042    1.000
    N4993    N        0.84569    0.35093    0.65443    1.000
    Si4994   Si       0.86490    0.31270    0.66044    1.000
    Si4995   Si       0.82246    0.40530    0.74061    1.000
    N4996    N        0.81820    0.39975    0.69869    1.000
    Si4997   Si       0.85298    0.38868    0.67719    1.000
    Si4998   Si       0.81967    0.43879    0.62540    1.000
    N4999    N        0.85319    0.46960    0.62866    1.000
    N5000    N        0.85019    0.40936    0.63781    1.000
    Si5001   Si       0.86794    0.50801    0.64193    1.000
    N5002    N        0.85889    0.30601    0.85083    1.000
    N5003    N        0.85002    0.37205    0.82349    1.000
    Si5004   Si       0.81058    0.36483    0.80354    1.000
    N5005    N        0.82232    0.44067    0.96512    1.000
    N5006    N        0.84267    0.48921    0.75132    1.000
    Si5007   Si       0.83026    0.47040    0.85917    1.000
    N5008    N        0.83783    0.50678    0.83673    1.000
    Si5009   Si       0.85917    0.39900    0.85804    1.000
    N5010    N        0.85860    0.44225    0.84168    1.000
    N5011    N        0.86135    0.42380    0.75086    1.000
    Si5012   Si       0.85929    0.32338    0.89170    1.000
    Si5013   Si       0.82289    0.37210    0.90672    1.000
    N5014    N        0.82521    0.31356    0.98863    1.000
    N5015    N        0.83101    0.38022    0.94857    1.000
    N5016    N        0.86686    0.36804    0.89341    1.000
    N5017    N        0.81560    0.32952    0.89521    1.000
    N5018    N        0.82291    0.50729    0.96496    1.000
    N5019    N        0.83780    0.47227    0.90329    1.000
    Si5020   Si       0.85527    0.41397    0.96165    1.000
    N5021    N        0.81576    0.40109    0.87543    1.000
    Si5022   Si       0.83808    0.60104    0.05068    1.000
    N5023    N        0.81978    0.60898    0.01207    1.000
    N5024    N        0.86726    0.51585    0.09449    1.000
    Si5025   Si       0.83759    0.50924    0.00990    1.000
    N5026    N        0.85738    0.63653    0.06979    1.000
    Si5027   Si       0.82510    0.66666    0.06975    1.000
    N5028    N        0.82183    0.68370    0.10993    1.000
    N5029    N        0.81513    0.69460    0.03679    1.000
    N5030    N        0.86976    0.75724    0.06773    1.000
    Si5031   Si       0.85426    0.72247    0.18912    1.000
    Si5032   Si       0.85819    0.58688    0.15168    1.000
    Si5033   Si       0.84914    0.54205    0.20849    1.000
    N5034    N        0.85330    0.54375    0.16342    1.000
    N5035    N        0.82585    0.61600    0.14058    1.000
    N5036    N        0.84147    0.58156    0.22284    1.000
    N5037    N        0.81940    0.51669    0.22894    1.000
    Si5038   Si       0.86093    0.50901    0.13825    1.000
    N5039    N        0.82883    0.75018    0.16998    1.000
    N5040    N        0.85401    0.65082    0.23705    1.000
    N5041    N        0.83421    0.68398    0.18065    1.000
    N5042    N        0.84928    0.72220    0.23605    1.000
    Si5043   Si       0.81769    0.66317    0.21441    1.000
    Si5044   Si       0.83712    0.65928    0.14351    1.000
    N5045    N        0.84608    0.56636    0.30062    1.000
    Si5046   Si       0.84204    0.60660    0.28108    1.000
    N5047    N        0.83032    0.51696    0.34859    1.000
    N5048    N        0.83765    0.63273    0.31463    1.000
    Si5049   Si       0.81224    0.54634    0.32027    1.000
    N5050    N        0.84572    0.68671    0.36312    1.000
    Si5051   Si       0.86410    0.66468    0.33002    1.000
    Si5052   Si       0.83645    0.73163    0.36355    1.000
    N5053    N        0.86168    0.75032    0.33405    1.000
    N5054    N        0.82273    0.55585    0.40357    1.000
    N5055    N        0.83975    0.60427    0.44985    1.000
    Si5056   Si       0.85726    0.57848    0.41982    1.000
    Si5057   Si       0.81530    0.51659    0.38873    1.000
    N5058    N        0.86015    0.50715    0.47452    1.000
    Si5059   Si       0.82529    0.66685    0.39572    1.000
    N5060    N        0.84925    0.67350    0.43166    1.000
    N5061    N        0.81545    0.72349    0.45616    1.000
    Si5062   Si       0.85451    0.71860    0.43583    1.000
    Si5063   Si       0.86521    0.63854    0.45251    1.000
    N5064    N        0.85753    0.74732    0.40209    1.000
    N5065    N        0.87247    0.69092    0.29543    1.000
    N5066    N        0.87155    0.59219    0.38132    1.000
    Si5067   Si       0.83202    0.58469    0.54595    1.000
    Si5068   Si       0.82215    0.53812    0.59862    1.000
    N5069    N        0.82088    0.54605    0.52363    1.000
    N5070    N        0.85537    0.51654    0.57909    1.000
    Si5071   Si       0.82330    0.50923    0.49895    1.000
    N5072    N        0.86552    0.63359    0.61517    1.000
    N5073    N        0.86377    0.69764    0.59906    1.000
    Si5074   Si       0.83840    0.73185    0.59679    1.000
    N5075    N        0.82959    0.65629    0.55997    1.000
    Si5076   Si       0.83764    0.66424    0.60100    1.000
    N5077    N        0.84110    0.70669    0.52357    1.000
    Si5078   Si       0.85973    0.66697    0.53029    1.000
    Si5079   Si       0.86404    0.74433    0.52583    1.000
    N5080    N        0.86736    0.63763    0.49766    1.000
    N5081    N        0.82126    0.54545    0.70405    1.000
    Si5082   Si       0.82949    0.56825    0.66762    1.000
    N5083    N        0.83850    0.53791    0.63869    1.000
    Si5084   Si       0.85250    0.51925    0.72020    1.000
    N5085    N        0.86678    0.58798    0.67444    1.000
    N5086    N        0.86830    0.61672    0.73730    1.000
    N5087    N        0.84237    0.65236    0.68034    1.000
    Si5088   Si       0.81337    0.75569    0.67107    1.000
    Si5089   Si       0.86553    0.72345    0.71335    1.000
    N5090    N        0.82416    0.71912    0.69859    1.000
    N5091    N        0.84247    0.75346    0.63581    1.000
    Si5092   Si       0.84947    0.65410    0.72291    1.000
    Si5093   Si       0.87117    0.62852    0.65753    1.000
    N5094    N        0.85558    0.75681    0.56725    1.000
    N5095    N        0.84830    0.61608    0.80982    1.000
    Si5096   Si       0.83448    0.51516    0.79388    1.000
    N5097    N        0.81651    0.55600    0.78931    1.000
    N5098    N        0.85659    0.66866    0.98697    1.000
    Si5099   Si       0.84418    0.65248    0.83516    1.000
    N5100    N        0.83484    0.71799    0.85520    1.000
    Si5101   Si       0.84201    0.75594    0.83548    1.000
    N5102    N        0.82022    0.64996    0.87253    1.000
    N5103    N        0.86946    0.60846    0.90040    1.000
    Si5104   Si       0.84818    0.57208    0.88845    1.000
    Si5105   Si       0.86023    0.52399    0.95274    1.000
    N5106    N        0.81772    0.62665    0.94266    1.000
    Si5107   Si       0.84148    0.62724    0.98008    1.000
    N5108    N        0.86575    0.55449    0.92411    1.000
    N5109    N        0.86737    0.53952    0.99273    1.000
    N5110    N        0.86323    0.67933    0.91659    1.000
    N5111    N        0.82051    0.74066    0.91684    1.000
    N5112    N        0.85179    0.73450    0.99256    1.000
    Si5113   Si       0.86950    0.69668    0.87685    1.000
    Si5114   Si       0.84311    0.64164    0.91050    1.000
    N5115    N        0.87300    0.55750    0.85593    1.000
    Si5116   Si       0.82582    0.69998    0.99508    1.000
    Si5117   Si       0.83019    0.77574    0.07958    1.000
    N5118    N        0.83578    0.85995    0.00699    1.000
    N5119    N        0.86029    0.86600    0.06332    1.000
    N5120    N        0.84277    0.79569    0.11435    1.000
    Si5121   Si       0.82415    0.84685    0.04698    1.000
    N5122    N        0.81514    0.80455    0.04962    1.000
    Si5123   Si       0.86986    0.88274    0.02444    1.000
    Si5124   Si       0.86947    0.88263    0.10058    1.000
    N5125    N        0.82893    0.89487    0.11213    1.000
    N5126    N        0.86114    0.97747    0.06518    1.000
    Si5127   Si       0.83038    0.97083    0.03254    1.000
    N5128    N        0.86036    0.99777    0.19786    1.000
    Si5129   Si       0.82771    0.79347    0.15661    1.000
    N5130    N        0.86904    0.80792    0.17097    1.000
    N5131    N        0.81703    0.94864    0.19845    1.000
    Si5132   Si       0.85497    0.92748    0.19210    1.000
    N5133    N        0.83410    0.88936    0.18327    1.000
    Si5134   Si       0.85291    0.98308    0.15729    1.000
    Si5135   Si       0.82440    0.00424    0.22112    1.000
    Si5136   Si       0.81355    0.87720    0.14871    1.000
    N5137    N        0.81167    0.98182    0.14179    1.000
    N5138    N        0.83732    0.85560    0.27306    1.000
    N5139    N        0.84944    0.78928    0.26568    1.000
    N5140    N        0.85235    0.87797    0.35772    1.000
    Si5141   Si       0.87261    0.82775    0.26823    1.000
    N5142    N        0.87013    0.81166    0.37104    1.000
    N5143    N        0.82448    0.97762    0.25541    1.000
    N5144    N        0.84768    0.92437    0.29617    1.000
    Si5145   Si       0.85694    0.96459    0.28445    1.000
    Si5146   Si       0.85593    0.89622    0.26407    1.000
    N5147    N        0.84617    0.99702    0.31040    1.000
    Si5148   Si       0.85180    0.91778    0.33838    1.000
    Si5149   Si       0.83074    0.00272    0.35311    1.000
    Si5150   Si       0.81327    0.88191    0.37411    1.000
    Si5151   Si       0.84423    0.79080    0.39737    1.000
    N5152    N        0.84849    0.81013    0.43732    1.000
    N5153    N        0.83893    0.97130    0.49790    1.000
    N5154    N        0.81865    0.90827    0.40678    1.000
    N5155    N        0.85000    0.90573    0.46770    1.000
    N5156    N        0.83998    0.96921    0.37912    1.000
    Si5157   Si       0.84203    0.79828    0.57207    1.000
    N5158    N        0.83843    0.82462    0.60647    1.000
    Si5159   Si       0.86276    0.85944    0.61127    1.000
    Si5160   Si       0.85855    0.81641    0.50274    1.000
    N5161    N        0.86848    0.81910    0.54511    1.000
    N5162    N        0.84653    0.95530    0.66796    1.000
    Si5163   Si       0.81306    0.89443    0.56473    1.000
    N5164    N        0.85475    0.89077    0.57975    1.000
    Si5165   Si       0.84834    0.92946    0.50418    1.000
    N5166    N        0.86592    0.95474    0.59127    1.000
    N5167    N        0.81368    0.91249    0.52606    1.000
    Si5168   Si       0.81709    0.87427    0.66113    1.000
    N5169    N        0.85405    0.77352    0.69175    1.000
    N5170    N        0.82178    0.85266    0.70002    1.000
    Si5171   Si       0.85464    0.85993    0.72671    1.000
    Si5172   Si       0.85880    0.78847    0.73350    1.000
    N5173    N        0.85837    0.88011    0.64907    1.000
    N5174    N        0.81903    0.00221    0.62657    1.000
    Si5175   Si       0.85236    0.97596    0.62693    1.000
    N5176    N        0.82593    0.93957    0.73074    1.000
    N5177    N        0.84612    0.77404    0.50034    1.000
    N5178    N        0.81842    0.83396    0.49583    1.000
    N5179    N        0.85189    0.82869    0.81488    1.000
    N5180    N        0.84630    0.87895    0.76656    1.000
    N5181    N        0.82308    0.80758    0.75035    1.000
    Si5182   Si       0.81740    0.81408    0.79164    1.000
    N5183    N        0.84931    0.78304    0.86848    1.000
    Si5184   Si       0.84843    0.87804    0.86953    1.000
    Si5185   Si       0.87041    0.81564    0.85220    1.000
    Si5186   Si       0.86134    0.95626    0.80604    1.000
    N5187    N        0.82023    0.95296    0.79958    1.000
    Si5188   Si       0.85970    0.91602    0.74555    1.000
    Si5189   Si       0.86480    0.90231    0.94112    1.000
    Si5190   Si       0.85816    0.83325    0.92767    1.000
    N5191    N        0.86365    0.79130    0.93779    1.000
    N5192    N        0.81768    0.85244    0.93623    1.000
    N5193    N        0.86805    0.84285    0.88668    1.000
    Si5194   Si       0.85596    0.76071    0.90402    1.000
    N5195    N        0.84618    0.98085    0.91292    1.000
    Si5196   Si       0.82736    0.96687    0.95267    1.000
    N5197    N        0.85556    0.91056    0.89890    1.000
    N5198    N        0.83263    0.92182    0.95940    1.000
    Si5199   Si       0.84268    0.95037    0.88257    1.000
    N5200    N        0.84763    0.97789    0.98996    1.000
    N5201    N        0.86847    0.94893    0.84878    1.000
    Si5202   Si       0.89262    0.07527    0.05611    1.000
    N5203    N        0.89891    0.03760    0.07840    1.000
    N5204    N        0.90439    0.10973    0.08004    1.000
    N5205    N        0.90867    0.07511    0.01547    1.000
    N5206    N        0.90741    0.17777    0.06982    1.000
    N5207    N        0.90726    0.23732    0.02747    1.000
    Si5208   Si       0.89807    0.22040    0.06666    1.000
    Si5209   Si       0.88401    0.14639    0.08872    1.000
    N5210    N        0.90234    0.24989    0.09771    1.000
    N5211    N        0.92727    0.14291    0.01016    1.000
    N5212    N        0.87973    0.08548    0.15562    1.000
    Si5213   Si       0.90683    0.12290    0.15704    1.000
    N5214    N        0.91149    0.04080    0.19562    1.000
    Si5215   Si       0.89536    0.04526    0.15560    1.000
    N5216    N        0.90507    0.13708    0.19868    1.000
    Si5217   Si       0.87394    0.24836    0.13097    1.000
    N5218    N        0.88016    0.14848    0.13341    1.000
    N5219    N        0.88964    0.25154    0.22103    1.000
    N5220    N        0.87788    0.21306    0.15929    1.000
    Si5221   Si       0.89200    0.21362    0.20034    1.000
    N5222    N        0.93044    0.19782    0.21285    1.000
    N5223    N        0.87576    0.01255    0.13502    1.000
    Si5224   Si       0.91082    0.08642    0.31803    1.000
    N5225    N        0.91708    0.06947    0.35892    1.000
    N5226    N        0.91415    0.12724    0.30711    1.000
    N5227    N        0.89585    0.02531    0.25555    1.000
    Si5228   Si       0.87902    0.02371    0.32052    1.000
    N5229    N        0.92135    0.22413    0.45044    1.000
    N5230    N        0.92617    0.23915    0.28183    1.000
    N5231    N        0.90263    0.19002    0.32259    1.000
    Si5232   Si       0.88068    0.15519    0.30475    1.000
    Si5233   Si       0.88720    0.24857    0.26593    1.000
    Si5234   Si       0.92220    0.06650    0.43836    1.000
    N5235    N        0.88490    0.05080    0.42520    1.000
    Si5236   Si       0.90210    0.03279    0.38685    1.000
    N5237    N        0.91908    0.10927    0.43968    1.000
    Si5238   Si       0.88416    0.12915    0.45707    1.000
    N5239    N        0.88220    0.21560    0.38918    1.000
    Si5240   Si       0.90462    0.19757    0.42181    1.000
    Si5241   Si       0.89498    0.23870    0.48206    1.000
    N5242    N        0.87574    0.16940    0.44002    1.000
    N5243    N        0.89314    0.13583    0.49895    1.000
    N5244    N        0.90802    0.05357    0.55377    1.000
    N5245    N        0.90673    0.11886    0.55810    1.000
    Si5246   Si       0.89877    0.20038    0.67410    1.000
    N5247    N        0.90293    0.19100    0.58297    1.000
    N5248    N        0.88852    0.21377    0.51855    1.000
    Si5249   Si       0.90729    0.14781    0.58952    1.000
    Si5250   Si       0.92168    0.20338    0.54457    1.000
    Si5251   Si       0.92685    0.23027    0.60698    1.000
    N5252    N        0.87333    0.04399    0.67992    1.000
    Si5253   Si       0.89753    0.04584    0.64243    1.000
    N5254    N        0.91155    0.08945    0.65007    1.000
    N5255    N        0.89471    0.09769    0.71272    1.000
    Si5256   Si       0.89933    0.02785    0.71241    1.000
    Si5257   Si       0.88199    0.12081    0.64733    1.000
    N5258    N        0.91113    0.15869    0.73922    1.000
    N5259    N        0.88411    0.15887    0.67148    1.000
    Si5260   Si       0.87592    0.18436    0.73652    1.000
    N5261    N        0.89448    0.22126    0.63672    1.000
    N5262    N        0.89108    0.11601    0.85154    1.000
    N5263    N        0.91256    0.05537    0.82367    1.000
    Si5264   Si       0.92257    0.08565    0.85710    1.000
    N5265    N        0.89398    0.03612    0.75454    1.000
    Si5266   Si       0.89713    0.01537    0.83812    1.000
    Si5267   Si       0.92414    0.05350    0.78109    1.000
    Si5268   Si       0.90601    0.11774    0.74927    1.000
    N5269    N        0.87726    0.11726    0.78084    1.000
    Si5270   Si       0.89047    0.13967    0.81517    1.000
    Si5271   Si       0.90014    0.24166    0.78425    1.000
    N5272    N        0.88435    0.20169    0.77431    1.000
    N5273    N        0.87740    0.24229    0.82151    1.000
    N5274    N        0.92325    0.07014    0.89650    1.000
    Si5275   Si       0.89587    0.08252    0.92645    1.000
    N5276    N        0.92254    0.09800    0.95792    1.000
    Si5277   Si       0.90267    0.11113    0.99266    1.000
    Si5278   Si       0.89224    0.21491    0.99047    1.000
    N5279    N        0.91980    0.24754    0.92322    1.000
    N5280    N        0.92776    0.19947    0.97161    1.000
    N5281    N        0.93234    0.15064    0.80430    1.000
    Si5282   Si       0.89663    0.28109    0.02495    1.000
    Si5283   Si       0.89469    0.37412    0.00341    1.000
    N5284    N        0.90631    0.38007    0.08959    1.000
    N5285    N        0.92420    0.30108    0.05236    1.000
    N5286    N        0.91931    0.31864    0.11589    1.000
    Si5287   Si       0.92957    0.28411    0.09055    1.000
    N5288    N        0.89972    0.44916    0.06922    1.000
    Si5289   Si       0.90315    0.41970    0.10085    1.000
    Si5290   Si       0.89193    0.44528    0.02431    1.000
    N5291    N        0.87818    0.41459    0.99883    1.000
    Si5292   Si       0.88759    0.29029    0.20278    1.000
    Si5293   Si       0.92479    0.35000    0.18207    1.000
    N5294    N        0.88064    0.34672    0.17259    1.000
    Si5295   Si       0.88069    0.32074    0.13556    1.000
    N5296    N        0.92744    0.30943    0.19778    1.000
    N5297    N        0.93074    0.37587    0.21552    1.000
    N5298    N        0.87838    0.28292    0.15952    1.000
    N5299    N        0.88267    0.43030    0.19426    1.000
    Si5300   Si       0.92083    0.41862    0.21216    1.000
    N5301    N        0.92587    0.43241    0.13802    1.000
    N5302    N        0.89684    0.48811    0.14972    1.000
    Si5303   Si       0.87493    0.44921    0.15633    1.000
    N5304    N        0.90038    0.35501    0.27756    1.000
    Si5305   Si       0.91334    0.31839    0.29504    1.000
    N5306    N        0.88268    0.28950    0.28179    1.000
    N5307    N        0.92354    0.32597    0.33899    1.000
    Si5308   Si       0.92614    0.50640    0.31780    1.000
    N5309    N        0.91784    0.40007    0.34263    1.000
    N5310    N        0.89608    0.50259    0.35188    1.000
    N5311    N        0.92395    0.42229    0.25571    1.000
    Si5312   Si       0.87561    0.40857    0.33293    1.000
    Si5313   Si       0.91106    0.30914    0.37686    1.000
    Si5314   Si       0.90937    0.34561    0.44228    1.000
    N5315    N        0.90865    0.34835    0.39689    1.000
    N5316    N        0.87861    0.32075    0.46405    1.000
    Si5317   Si       0.92517    0.47183    0.46149    1.000
    Si5318   Si       0.91233    0.40250    0.49428    1.000
    N5319    N        0.89614    0.47454    0.42889    1.000
    N5320    N        0.89706    0.38538    0.45829    1.000
    Si5321   Si       0.91443    0.48953    0.39150    1.000
    N5322    N        0.87495    0.28789    0.37526    1.000
    Si5323   Si       0.88697    0.28391    0.59169    1.000
    N5324    N        0.88987    0.31616    0.56335    1.000
    Si5325   Si       0.91746    0.35003    0.55102    1.000
    N5326    N        0.92394    0.27522    0.61311    1.000
    Si5327   Si       0.87396    0.30392    0.50800    1.000
    N5328    N        0.90896    0.27558    0.50404    1.000
    N5329    N        0.89622    0.38253    0.52905    1.000
    N5330    N        0.91602    0.50194    0.54912    1.000
    Si5331   Si       0.91476    0.45906    0.53839    1.000
    N5332    N        0.87675    0.44676    0.55904    1.000
    Si5333   Si       0.91766    0.34679    0.69789    1.000
    N5334    N        0.90693    0.31906    0.66689    1.000
    N5335    N        0.88569    0.37425    0.70476    1.000
    N5336    N        0.87472    0.50223    0.68503    1.000
    Si5337   Si       0.89224    0.41229    0.72286    1.000
    N5338    N        0.92003    0.44078    0.62376    1.000
    N5339    N        0.88687    0.43576    0.68455    1.000
    N5340    N        0.93134    0.31762    0.72907    1.000
    N5341    N        0.90665    0.47307    0.73991    1.000
    Si5342   Si       0.90451    0.47308    0.69721    1.000
    Si5343   Si       0.88102    0.43931    0.64353    1.000
    N5344    N        0.91310    0.44544    0.49610    1.000
    Si5345   Si       0.90781    0.30267    0.76092    1.000
    N5346    N        0.91642    0.34528    0.83563    1.000
    N5347    N        0.91957    0.28551    0.86704    1.000
    Si5348   Si       0.87952    0.26777    0.85433    1.000
    N5349    N        0.87712    0.32892    0.77974    1.000
    N5350    N        0.88553    0.26630    0.75098    1.000
    Si5351   Si       0.87564    0.33800    0.82213    1.000
    Si5352   Si       0.90748    0.44841    0.84132    1.000
    N5353    N        0.90882    0.44937    0.79649    1.000
    N5354    N        0.90442    0.40730    0.85566    1.000
    Si5355   Si       0.87665    0.46397    0.76831    1.000
    N5356    N        0.89947    0.48525    0.86898    1.000
    N5357    N        0.87644    0.30037    0.92451    1.000
    N5358    N        0.89753    0.36277    0.96021    1.000
    Si5359   Si       0.90129    0.32134    0.95426    1.000
    N5360    N        0.90972    0.29524    0.98804    1.000
    Si5361   Si       0.89565    0.38381    0.92143    1.000
    N5362    N        0.88811    0.49448    0.93834    1.000
    N5363    N        0.88338    0.42464    0.92769    1.000
    Si5364   Si       0.88034    0.46677    0.90537    1.000
    Si5365   Si       0.87684    0.25600    0.92713    1.000
    Si5366   Si       0.88819    0.62301    0.10020    1.000
    Si5367   Si       0.88982    0.57435    0.00677    1.000
    N5368    N        0.87884    0.58141    0.11301    1.000
    Si5369   Si       0.88725    0.55192    0.08131    1.000
    N5370    N        0.92693    0.53650    0.06472    1.000
    N5371    N        0.87217    0.57674    0.04622    1.000
    N5372    N        0.91027    0.69730    0.23215    1.000
    N5373    N        0.92188    0.63749    0.02681    1.000
    N5374    N        0.89955    0.70371    0.03385    1.000
    N5375    N        0.91050    0.71147    0.10573    1.000
    Si5376   Si       0.89826    0.66832    0.00856    1.000
    Si5377   Si       0.87693    0.74008    0.02811    1.000
    Si5378   Si       0.90444    0.75555    0.09329    1.000
    N5379    N        0.87992    0.65188    0.13179    1.000
    N5380    N        0.87936    0.51484    0.22568    1.000
    N5381    N        0.88633    0.60268    0.18183    1.000
    Si5382   Si       0.92116    0.52154    0.24059    1.000
    Si5383   Si       0.92492    0.62276    0.18065    1.000
    N5384    N        0.92098    0.63100    0.22740    1.000
    Si5385   Si       0.87494    0.61460    0.22564    1.000
    Si5386   Si       0.92020    0.73132    0.20508    1.000
    N5387    N        0.89437    0.72035    0.17154    1.000
    Si5388   Si       0.90772    0.68725    0.14312    1.000
    Si5389   Si       0.88843    0.56445    0.29305    1.000
    N5390    N        0.91145    0.57987    0.32516    1.000
    N5391    N        0.91244    0.52917    0.28349    1.000
    N5392    N        0.88397    0.60271    0.26819    1.000
    Si5393   Si       0.90642    0.60486    0.35962    1.000
    Si5394   Si       0.92731    0.62000    0.26887    1.000
    N5395    N        0.89894    0.64596    0.34592    1.000
    Si5396   Si       0.89251    0.72642    0.31479    1.000
    N5397    N        0.90433    0.75017    0.28189    1.000
    N5398    N        0.92627    0.70774    0.33419    1.000
    Si5399   Si       0.90026    0.75623    0.41774    1.000
    Si5400   Si       0.87264    0.68833    0.25305    1.000
    Si5401   Si       0.87432    0.75598    0.25188    1.000
    Si5402   Si       0.89201    0.53397    0.47358    1.000
    N5403    N        0.89084    0.55515    0.43488    1.000
    N5404    N        0.90489    0.62336    0.44322    1.000
    N5405    N        0.89248    0.72771    0.45119    1.000
    Si5406   Si       0.92133    0.72107    0.48259    1.000
    Si5407   Si       0.93088    0.56282    0.41685    1.000
    N5408    N        0.92932    0.51298    0.47831    1.000
    Si5409   Si       0.89831    0.52327    0.58311    1.000
    Si5410   Si       0.88917    0.60363    0.51174    1.000
    N5411    N        0.89576    0.56102    0.50635    1.000
    Si5412   Si       0.89095    0.62902    0.57942    1.000
    N5413    N        0.92570    0.55852    0.57430    1.000
    Si5414   Si       0.92523    0.54281    0.53372    1.000
    N5415    N        0.87054    0.60279    0.55197    1.000
    N5416    N        0.89895    0.66704    0.55324    1.000
    Si5417   Si       0.90462    0.69991    0.58483    1.000
    N5418    N        0.90588    0.74241    0.51671    1.000
    Si5419   Si       0.88495    0.58431    0.71495    1.000
    N5420    N        0.88114    0.54680    0.73765    1.000
    N5421    N        0.92713    0.58650    0.70546    1.000
    N5422    N        0.88146    0.68599    0.72994    1.000
    N5423    N        0.89240    0.72136    0.67362    1.000
    Si5424   Si       0.92022    0.68894    0.66108    1.000
    N5425    N        0.90952    0.64696    0.66743    1.000
    N5426    N        0.93024    0.62459    0.59217    1.000
    N5427    N        0.92614    0.73831    0.58359    1.000
    N5428    N        0.90725    0.50897    0.62209    1.000
    N5429    N        0.90268    0.57714    0.79145    1.000
    Si5430   Si       0.90802    0.53826    0.77058    1.000
    Si5431   Si       0.90820    0.57409    0.83497    1.000
    Si5432   Si       0.88418    0.51761    0.83895    1.000
    Si5433   Si       0.88062    0.61403    0.78022    1.000
    N5434    N        0.88032    0.51531    0.79486    1.000
    N5435    N        0.92831    0.53563    0.83404    1.000
    N5436    N        0.93030    0.61160    0.83886    1.000
    N5437    N        0.89176    0.73744    0.88149    1.000
    N5438    N        0.90486    0.65055    0.78766    1.000
    Si5439   Si       0.91975    0.65326    0.82999    1.000
    Si5440   Si       0.91360    0.68043    0.75997    1.000
    N5441    N        0.88268    0.66371    0.85101    1.000
    Si5442   Si       0.90261    0.75281    0.77950    1.000
    N5443    N        0.92924    0.71920    0.77536    1.000
    N5444    N        0.88307    0.75334    0.81820    1.000
    N5445    N        0.87178    0.75003    0.74859    1.000
    Si5446   Si       0.89222    0.58939    0.93270    1.000
    N5447    N        0.87768    0.60336    0.97369    1.000
    N5448    N        0.92819    0.61670    0.92651    1.000
    Si5449   Si       0.92804    0.51138    0.94616    1.000
    N5450    N        0.92979    0.55300    0.93196    1.000
    N5451    N        0.89731    0.73358    0.94184    1.000
    Si5452   Si       0.92369    0.72782    0.90794    1.000
    Si5453   Si       0.87951    0.69324    0.95368    1.000
    N5454    N        0.91694    0.67331    0.96952    1.000
    N5455    N        0.90968    0.86667    0.01286    1.000
    N5456    N        0.89989    0.77139    0.00212    1.000
    N5457    N        0.89368    0.85522    0.12198    1.000
    N5458    N        0.91229    0.78780    0.11752    1.000
    N5459    N        0.88965    0.92046    0.09696    1.000
    Si5460   Si       0.89026    0.94372    0.06103    1.000
    N5461    N        0.88094    0.92468    0.02192    1.000
    N5462    N        0.92970    0.96167    0.05582    1.000
    Si5463   Si       0.88088    0.81437    0.12788    1.000
    Si5464   Si       0.90163    0.80448    0.19976    1.000
    N5465    N        0.89194    0.83436    0.22916    1.000
    N5466    N        0.89730    0.76626    0.21679    1.000
    Si5467   Si       0.92190    0.86406    0.23992    1.000
    N5468    N        0.87495    0.91843    0.22903    1.000
    Si5469   Si       0.91063    0.93400    0.13463    1.000
    N5470    N        0.87571    0.94702    0.15834    1.000
    Si5471   Si       0.89821    0.00563    0.21608    1.000
    Si5472   Si       0.91241    0.93220    0.24197    1.000
    N5473    N        0.92377    0.96942    0.21982    1.000
    N5474    N        0.92178    0.85803    0.35402    1.000
    N5475    N        0.89310    0.82036    0.30553    1.000
    Si5476   Si       0.88553    0.79042    0.33361    1.000
    Si5477   Si       0.91633    0.85736    0.31094    1.000
    N5478    N        0.89907    0.87801    0.27594    1.000
    N5479    N        0.92432    0.77214    0.33668    1.000
    N5480    N        0.89921    0.95600    0.27729    1.000
    Si5481   Si       0.91821    0.96010    0.31604    1.000
    N5482    N        0.88732    0.94236    0.34284    1.000
    N5483    N        0.91757    0.00334    0.31415    1.000
    Si5484   Si       0.88440    0.85452    0.37474    1.000
    Si5485   Si       0.88713    0.82820    0.44050    1.000
    N5486    N        0.91187    0.79446    0.43040    1.000
    N5487    N        0.89169    0.83696    0.48202    1.000
    N5488    N        0.88632    0.86383    0.41840    1.000
    Si5489   Si       0.91979    0.86836    0.49412    1.000
    Si5490   Si       0.92715    0.96178    0.42591    1.000
    Si5491   Si       0.88324    0.90176    0.44003    1.000
    Si5492   Si       0.88193    0.96170    0.38145    1.000
    N5493    N        0.89077    0.93448    0.41199    1.000
    N5494    N        0.91862    0.90138    0.46623    1.000
    N5495    N        0.90290    0.98273    0.45603    1.000
    N5496    N        0.91456    0.98953    0.39011    1.000
    Si5497   Si       0.87158    0.99658    0.48250    1.000
    N5498    N        0.90273    0.84343    0.60011    1.000
    Si5499   Si       0.90577    0.83525    0.55711    1.000
    N5500    N        0.92010    0.87048    0.53678    1.000
    Si5501   Si       0.88675    0.92004    0.57260    1.000
    N5502    N        0.92014    0.99097    0.57274    1.000
    Si5503   Si       0.88077    0.98021    0.55238    1.000
    N5504    N        0.92642    0.91311    0.58714    1.000
    N5505    N        0.87923    0.93693    0.53348    1.000
    N5506    N        0.90083    0.00120    0.51465    1.000
    Si5507   Si       0.92691    0.99384    0.61608    1.000
    N5508    N        0.92152    0.85998    0.66950    1.000
    N5509    N        0.90456    0.79254    0.64803    1.000
    N5510    N        0.88141    0.82642    0.73222    1.000
    Si5511   Si       0.92352    0.82915    0.63631    1.000
    Si5512   Si       0.87846    0.76126    0.65770    1.000
    N5513    N        0.89086    0.99055    0.63861    1.000
    Si5514   Si       0.89245    0.89261    0.67274    1.000
    N5515    N        0.90270    0.98581    0.70520    1.000
    Si5516   Si       0.88899    0.96389    0.67316    1.000
    N5517    N        0.90991    0.92805    0.65765    1.000
    N5518    N        0.87692    0.89522    0.71213    1.000
    N5519    N        0.91139    0.86332    0.78256    1.000
    N5520    N        0.91348    0.80623    0.85307    1.000
    Si5521   Si       0.91904    0.83198    0.75426    1.000
    Si5522   Si       0.91272    0.76275    0.84932    1.000
    N5523    N        0.92408    0.79163    0.77755    1.000
    Si5524   Si       0.87136    0.86547    0.79737    1.000
    Si5525   Si       0.89742    0.91704    0.85170    1.000
    N5526    N        0.87425    0.99793    0.80518    1.000
    N5527    N        0.88265    0.93594    0.77333    1.000
    N5528    N        0.87293    0.88558    0.83445    1.000
    N5529    N        0.91792    0.97879    0.98844    1.000
    N5530    N        0.88245    0.86266    0.94991    1.000
    Si5531   Si       0.91953    0.85985    0.97154    1.000
    Si5532   Si       0.87562    0.76164    0.96772    1.000
    N5533    N        0.89392    0.93011    0.95342    1.000
    Si5534   Si       0.88177    0.95229    0.98904    1.000
    N5535    N        0.92331    0.91920    0.88875    1.000
    N5536    N        0.91370    0.99911    0.91114    1.000
    N5537    N        0.95221    0.02788    0.02237    1.000
    Si5538   Si       0.94577    0.10711    0.09417    1.000
    N5539    N        0.95787    0.06875    0.07975    1.000
    Si5540   Si       0.93728    0.03370    0.09878    1.000
    Si5541   Si       0.97827    0.04090    0.05334    1.000
    N5542    N        0.96744    0.14022    0.07571    1.000
    N5543    N        0.97664    0.20388    0.10171    1.000
    N5544    N        0.97047    0.18442    0.02479    1.000
    Si5545   Si       0.94016    0.16296    0.04787    1.000
    N5546    N        0.94483    0.11453    0.13719    1.000
    Si5547   Si       0.95247    0.04345    0.18243    1.000
    N5548    N        0.97192    0.07895    0.19368    1.000
    Si5549   Si       0.97898    0.10745    0.16054    1.000
    Si5550   Si       0.98298    0.11092    0.21993    1.000
    N5551    N        0.93688    0.04212    0.13990    1.000
    Si5552   Si       0.96806    0.21953    0.21313    1.000
    N5553    N        0.98666    0.21132    0.17459    1.000
    Si5554   Si       0.93998    0.15581    0.21709    1.000
    N5555    N        0.97606    0.14316    0.19189    1.000
    N5556    N        0.96938    0.25995    0.22675    1.000
    N5557    N        0.94144    0.06680    0.29451    1.000
    N5558    N        0.98055    0.11728    0.32090    1.000
    Si5559   Si       0.98258    0.07383    0.30993    1.000
    N5560    N        0.96379    0.01520    0.25496    1.000
    N5561    N        0.95683    0.12933    0.24877    1.000
    N5562    N        0.98342    0.05330    0.34732    1.000
    Si5563   Si       0.93173    0.02574    0.27981    1.000
    Si5564   Si       0.95476    0.13828    0.29272    1.000
    Si5565   Si       0.93799    0.21099    0.31242    1.000
    N5566    N        0.96387    0.18141    0.29449    1.000
    N5567    N        0.95339    0.22510    0.35094    1.000
    N5568    N        0.99003    0.24698    0.29312    1.000
    Si5569   Si       0.95628    0.07066    0.37481    1.000
    N5570    N        0.93898    0.04764    0.47389    1.000
    N5571    N        0.94885    0.04581    0.40922    1.000
    N5572    N        0.96850    0.11026    0.39061    1.000
    Si5573   Si       0.98048    0.01380    0.41689    1.000
    N5574    N        0.96348    0.14677    0.46160    1.000
    N5575    N        0.93777    0.17130    0.40502    1.000
    Si5576   Si       0.94946    0.13402    0.42334    1.000
    Si5577   Si       0.96286    0.23571    0.44763    1.000
    N5578    N        0.97842    0.22894    0.40789    1.000
    Si5579   Si       0.96661    0.19404    0.38403    1.000
    N5580    N        0.98772    0.21444    0.47658    1.000
    N5581    N        0.95384    0.10498    0.51558    1.000
    N5582    N        0.96281    0.08760    0.58542    1.000
    N5583    N        0.96718    0.04708    0.53719    1.000
    Si5584   Si       0.96875    0.06725    0.49805    1.000
    Si5585   Si       0.93639    0.08604    0.55033    1.000
    Si5586   Si       0.93556    0.01488    0.53981    1.000
    N5587    N        0.94623    0.23224    0.56540    1.000
    N5588    N        0.94789    0.17568    0.52664    1.000
    Si5589   Si       0.93917    0.14222    0.50098    1.000
    N5590    N        0.96013    0.21519    0.63030    1.000
    N5591    N        0.93699    0.14060    0.62068    1.000
    Si5592   Si       0.96623    0.17250    0.61903    1.000
    Si5593   Si       0.96148    0.22927    0.67091    1.000
    Si5594   Si       0.94512    0.09670    0.62268    1.000
    N5595    N        0.95711    0.12542    0.69648    1.000
    N5596    N        0.93781    0.03434    0.62781    1.000
    N5597    N        0.97763    0.08714    0.65079    1.000
    Si5598   Si       0.97942    0.04632    0.63751    1.000
    Si5599   Si       0.97923    0.02883    0.70713    1.000
    N5600    N        0.93857    0.04619    0.70116    1.000
    Si5601   Si       0.93108    0.08792    0.68985    1.000
    Si5602   Si       0.94829    0.16210    0.71656    1.000
    N5603    N        0.93874    0.19767    0.69259    1.000
    N5604    N        0.96204    0.10553    0.84880    1.000
    N5605    N        0.96624    0.03435    0.77927    1.000
    Si5606   Si       0.97814    0.07337    0.76412    1.000
    N5607    N        0.93677    0.08930    0.76147    1.000
    Si5608   Si       0.97115    0.13000    0.81448    1.000
    N5609    N        0.94095    0.22438    0.78473    1.000
    N5610    N        0.97015    0.17327    0.75326    1.000
    Si5611   Si       0.93165    0.18324    0.77435    1.000
    N5612    N        0.97131    0.25496    0.97236    1.000
    Si5613   Si       0.96684    0.25900    0.78384    1.000
    N5614    N        0.94458    0.03364    0.95618    1.000
    Si5615   Si       0.95576    0.05051    0.91900    1.000
    N5616    N        0.97546    0.01939    0.89580    1.000
    Si5617   Si       0.96614    0.10747    0.95558    1.000
    N5618    N        0.98000    0.08673    0.92112    1.000
    N5619    N        0.97705    0.08517    0.99301    1.000
    N5620    N        0.97919    0.20688    0.92681    1.000
    Si5621   Si       0.94176    0.05747    0.99344    1.000
    Si5622   Si       0.94865    0.22830    0.94713    1.000
    N5623    N        0.97620    0.14766    0.95775    1.000
    Si5624   Si       0.95558    0.16983    0.98828    1.000
    N5625    N        0.96818    0.34814    0.07655    1.000
    Si5626   Si       0.94894    0.33272    0.03974    1.000
    N5627    N        0.97097    0.27539    0.09636    1.000
    N5628    N        0.97644    0.31627    0.00733    1.000
    Si5629   Si       0.94009    0.35739    0.10806    1.000
    N5630    N        0.93491    0.37049    0.01976    1.000
    Si5631   Si       0.95969    0.40417    0.03293    1.000
    N5632    N        0.94848    0.48465    0.09965    1.000
    N5633    N        0.96227    0.42225    0.07247    1.000
    Si5634   Si       0.94421    0.46052    0.06364    1.000
    N5635    N        0.97445    0.48694    0.04021    1.000
    N5636    N        0.93640    0.44163    0.01786    1.000
    Si5637   Si       0.96238    0.47083    0.00020    1.000
    N5638    N        0.94608    0.36866    0.14955    1.000
    Si5639   Si       0.96859    0.29678    0.20385    1.000
    N5640    N        0.98574    0.28604    0.16499    1.000
    N5641    N        0.95982    0.49816    0.16842    1.000
    N5642    N        0.94498    0.48404    0.23663    1.000
    Si5643   Si       0.93587    0.47551    0.14009    1.000
    Si5644   Si       0.97240    0.47555    0.20319    1.000
    N5645    N        0.95795    0.43546    0.19246    1.000
    Si5646   Si       0.95936    0.41161    0.15537    1.000
    N5647    N        0.95055    0.30603    0.27409    1.000
    N5648    N        0.97075    0.37346    0.27826    1.000
    Si5649   Si       0.95956    0.26369    0.26870    1.000
    Si5650   Si       0.98593    0.33210    0.26656    1.000
    Si5651   Si       0.93575    0.36299    0.35955    1.000
    Si5652   Si       0.93152    0.37980    0.26050    1.000
    N5653    N        0.97809    0.36099    0.37081    1.000
    Si5654   Si       0.94873    0.45504    0.26722    1.000
    Si5655   Si       0.94343    0.43613    0.34067    1.000
    N5656    N        0.98397    0.41650    0.33897    1.000
    N5657    N        0.93653    0.46572    0.30979    1.000
    N5658    N        0.95011    0.34034    0.45276    1.000
    N5659    N        0.96621    0.27724    0.46397    1.000
    Si5660   Si       0.96889    0.30680    0.43252    1.000
    N5661    N        0.94538    0.29115    0.39662    1.000
    Si5662   Si       0.96636    0.35428    0.49137    1.000
    Si5663   Si       0.96786    0.25887    0.37587    1.000
    N5664    N        0.94042    0.45668    0.37840    1.000
    N5665    N        0.96457    0.46418    0.44650    1.000
    Si5666   Si       0.97520    0.45623    0.40620    1.000
    N5667    N        0.95616    0.39516    0.49728    1.000
    N5668    N        0.94100    0.32953    0.52073    1.000
    N5669    N        0.93907    0.37209    0.58160    1.000
    Si5670   Si       0.95076    0.28938    0.50513    1.000
    Si5671   Si       0.98654    0.37293    0.58381    1.000
    N5672    N        0.98713    0.27367    0.52743    1.000
    Si5673   Si       0.94028    0.41345    0.59480    1.000
    N5674    N        0.94396    0.43316    0.55606    1.000
    Si5675   Si       0.97163    0.42159    0.52759    1.000
    N5676    N        0.97634    0.40658    0.61654    1.000
    N5677    N        0.97770    0.49104    0.62078    1.000
    Si5678   Si       0.99030    0.34225    0.67338    1.000
    N5679    N        0.98013    0.26194    0.74366    1.000
    N5680    N        0.95602    0.36496    0.68693    1.000
    Si5681   Si       0.96384    0.29089    0.71641    1.000
    N5682    N        0.94874    0.26930    0.67988    1.000
    Si5683   Si       0.93837    0.29786    0.64717    1.000
    N5684    N        0.97513    0.31940    0.63883    1.000
    N5685    N        0.93221    0.41096    0.73910    1.000
    Si5686   Si       0.97854    0.47023    0.69863    1.000
    N5687    N        0.97157    0.47299    0.74105    1.000
    Si5688   Si       0.96543    0.39906    0.71548    1.000
    N5689    N        0.98166    0.42816    0.68581    1.000
    N5690    N        0.94206    0.48055    0.67789    1.000
    Si5691   Si       0.93847    0.48184    0.63365    1.000
    N5692    N        0.98908    0.45994    0.51382    1.000
    N5693    N        0.97734    0.31986    0.84854    1.000
    Si5694   Si       0.93957    0.30796    0.83326    1.000
    Si5695   Si       0.93377    0.37678    0.86258    1.000
    N5696    N        0.93542    0.28733    0.79518    1.000
    N5697    N        0.97718    0.39076    0.86168    1.000
    N5698    N        0.98403    0.50012    0.80363    1.000
    N5699    N        0.95275    0.45499    0.85263    1.000
    N5700    N        0.97191    0.42879    0.78827    1.000
    Si5701   Si       0.93902    0.44756    0.76416    1.000
    Si5702   Si       0.98010    0.45930    0.81783    1.000
    N5703    N        0.97925    0.26992    0.89758    1.000
    Si5704   Si       0.96437    0.35025    0.92762    1.000
    Si5705   Si       0.93897    0.28250    0.90612    1.000
    N5706    N        0.94365    0.31379    0.94016    1.000
    Si5707   Si       0.95338    0.29270    0.97921    1.000
    N5708    N        0.93340    0.37087    0.90535    1.000
    N5709    N        0.95360    0.48874    0.91904    1.000
    Si5710   Si       0.94323    0.49202    0.87627    1.000
    N5711    N        0.94118    0.50525    0.98740    1.000
    Si5712   Si       0.98882    0.43098    0.86971    1.000
    N5713    N        0.99013    0.45656    0.97064    1.000
    Si5714   Si       0.95680    0.52546    0.09436    1.000
    Si5715   Si       0.94723    0.53043    0.02328    1.000
    Si5716   Si       0.96949    0.58876    0.00841    1.000
    N5717    N        0.98595    0.61994    0.03436    1.000
    Si5718   Si       0.95840    0.59214    0.11887    1.000
    N5719    N        0.93380    0.61686    0.09252    1.000
    N5720    N        0.98621    0.55128    0.02257    1.000
    Si5721   Si       0.95236    0.63565    0.05720    1.000
    N5722    N        0.96159    0.67728    0.06450    1.000
    N5723    N        0.94167    0.74983    0.06839    1.000
    N5724    N        0.95633    0.60484    0.16073    1.000
    Si5725   Si       0.97475    0.56989    0.23774    1.000
    Si5726   Si       0.95736    0.54232    0.17058    1.000
    N5727    N        0.94932    0.55043    0.12867    1.000
    N5728    N        0.94532    0.54709    0.21568    1.000
    N5729    N        0.93035    0.66554    0.17368    1.000
    Si5730   Si       0.93969    0.66864    0.21664    1.000
    Si5731   Si       0.98423    0.71585    0.24399    1.000
    N5732    N        0.96325    0.73395    0.20761    1.000
    N5733    N        0.97734    0.67432    0.23455    1.000
    N5734    N        0.93117    0.56742    0.00822    1.000
    Si5735   Si       0.93026    0.70718    0.06606    1.000
    N5736    N        0.95224    0.58300    0.27231    1.000
    N5737    N        0.95879    0.53050    0.33189    1.000
    Si5738   Si       0.95402    0.57176    0.31400    1.000
    N5739    N        0.97906    0.60146    0.33141    1.000
    Si5740   Si       0.97391    0.52467    0.37201    1.000
    N5741    N        0.97297    0.73349    0.28244    1.000
    Si5742   Si       0.94487    0.73991    0.35675    1.000
    N5743    N        0.94676    0.64693    0.29553    1.000
    N5744    N        0.96805    0.65579    0.35891    1.000
    Si5745   Si       0.93445    0.66679    0.33347    1.000
    N5746    N        0.98541    0.74996    0.34671    1.000
    Si5747   Si       0.97976    0.59944    0.37384    1.000
    Si5748   Si       0.93963    0.61496    0.46641    1.000
    N5749    N        0.93960    0.59199    0.38677    1.000
    N5750    N        0.95114    0.57462    0.45389    1.000
    Si5751   Si       0.96530    0.54110    0.47760    1.000
    N5752    N        0.94064    0.52365    0.39844    1.000
    N5753    N        0.93570    0.73812    0.39817    1.000
    N5754    N        0.95881    0.73315    0.46665    1.000
    N5755    N        0.97585    0.63704    0.45873    1.000
    Si5756   Si       0.96919    0.73266    0.42376    1.000
    Si5757   Si       0.99016    0.64209    0.31593    1.000
    N5758    N        0.97816    0.69085    0.42210    1.000
    Si5759   Si       0.97358    0.68016    0.46693    1.000
    N5760    N        0.96358    0.55157    0.51850    1.000
    Si5761   Si       0.95239    0.58831    0.59523    1.000
    N5762    N        0.93158    0.61823    0.50961    1.000
    N5763    N        0.96945    0.75463    0.64722    1.000
    N5764    N        0.97027    0.66138    0.55712    1.000
    N5765    N        0.97371    0.75041    0.53384    1.000
    Si5766   Si       0.95983    0.65493    0.59893    1.000
    Si5767   Si       0.95706    0.72737    0.61407    1.000
    Si5768   Si       0.93577    0.65715    0.52851    1.000
    N5769    N        0.93404    0.68800    0.61659    1.000
    N5770    N        0.96004    0.69633    0.67487    1.000
    N5771    N        0.95460    0.58736    0.64056    1.000
    Si5772   Si       0.95976    0.56727    0.72601    1.000
    Si5773   Si       0.93913    0.61463    0.67224    1.000
    N5774    N        0.97775    0.62988    0.68486    1.000
    N5775    N        0.98608    0.55309    0.69528    1.000
    Si5776   Si       0.98171    0.73385    0.68302    1.000
    N5777    N        0.96834    0.74656    0.72144    1.000
    N5778    N        0.95417    0.67150    0.74176    1.000
    Si5779   Si       0.97933    0.63891    0.72731    1.000
    Si5780   Si       0.93289    0.75926    0.54618    1.000
    Si5781   Si       0.96572    0.71307    0.74898    1.000
    N5782    N        0.93839    0.68223    0.49497    1.000
    Si5783   Si       0.97262    0.53374    0.83107    1.000
    N5784    N        0.94778    0.53695    0.75638    1.000
    Si5785   Si       0.97319    0.61129    0.83406    1.000
    N5786    N        0.98163    0.51652    0.86952    1.000
    N5787    N        0.98193    0.59913    0.74450    1.000
    Si5788   Si       0.98276    0.50927    0.76220    1.000
    N5789    N        0.95097    0.75344    0.82918    1.000
    N5790    N        0.95027    0.68139    0.83682    1.000
    Si5791   Si       0.95691    0.71550    0.81105    1.000
    Si5792   Si       0.93805    0.65789    0.93445    1.000
    N5793    N        0.98628    0.63003    0.87024    1.000
    N5794    N        0.97892    0.59654    0.96792    1.000
    Si5795   Si       0.95983    0.58441    0.93165    1.000
    Si5796   Si       0.96718    0.66963    0.87566    1.000
    N5797    N        0.95700    0.75165    0.89342    1.000
    N5798    N        0.93436    0.68645    0.90115    1.000
    N5799    N        0.98186    0.65675    0.93567    1.000
    Si5800   Si       0.96628    0.78265    0.05490    1.000
    N5801    N        0.97165    0.77223    0.01185    1.000
    N5802    N        0.94213    0.81753    0.04304    1.000
    Si5803   Si       0.94098    0.86058    0.04032    1.000
    N5804    N        0.94835    0.87702    0.07861    1.000
    Si5805   Si       0.93565    0.86799    0.11999    1.000
    Si5806   Si       0.93531    0.79351    0.00408    1.000
    N5807    N        0.97492    0.88374    0.02307    1.000
    Si5808   Si       0.96053    0.96217    0.08742    1.000
    Si5809   Si       0.94569    0.98507    0.02058    1.000
    Si5810   Si       0.98774    0.89185    0.06448    1.000
    N5811    N        0.97211    0.00775    0.08352    1.000
    N5812    N        0.96444    0.83313    0.12262    1.000
    N5813    N        0.98368    0.86557    0.18747    1.000
    Si5814   Si       0.97523    0.82544    0.20227    1.000
    Si5815   Si       0.94968    0.79570    0.13982    1.000
    N5816    N        0.95924    0.83900    0.24021    1.000
    N5817    N        0.94001    0.80622    0.18173    1.000
    N5818    N        0.97958    0.76533    0.14225    1.000
    N5819    N        0.93634    0.90051    0.22275    1.000
    Si5820   Si       0.95946    0.90151    0.18696    1.000
    Si5821   Si       0.97367    0.97113    0.15787    1.000
    N5822    N        0.94480    0.96075    0.12788    1.000
    N5823    N        0.96906    0.00394    0.18689    1.000
    N5824    N        0.93638    0.90000    0.14957    1.000
    Si5825   Si       0.96431    0.98133    0.22539    1.000
    N5826    N        0.98623    0.93683    0.18250    1.000
    N5827    N        0.98821    0.97272    0.01972    1.000
    N5828    N        0.97046    0.79881    0.29257    1.000
    N5829    N        0.96217    0.86400    0.30565    1.000
    Si5830   Si       0.98057    0.83702    0.27878    1.000
    Si5831   Si       0.94466    0.76397    0.29731    1.000
    Si5832   Si       0.96406    0.85265    0.35214    1.000
    N5833    N        0.95230    0.93461    0.31412    1.000
    Si5834   Si       0.98153    0.90360    0.31649    1.000
    N5835    N        0.98519    0.89134    0.35747    1.000
    Si5836   Si       0.98855    0.96690    0.48088    1.000
    Si5837   Si       0.96249    0.89546    0.45331    1.000
    N5838    N        0.96125    0.85795    0.48092    1.000
    N5839    N        0.98867    0.87849    0.42438    1.000
    N5840    N        0.96403    0.98498    0.44722    1.000
    N5841    N        0.98499    0.92351    0.47856    1.000
    N5842    N        0.95477    0.92937    0.41565    1.000
    Si5843   Si       0.93448    0.00327    0.47790    1.000
    N5844    N        0.97251    0.85125    0.57928    1.000
    Si5845   Si       0.97615    0.81395    0.55741    1.000
    N5846    N        0.93541    0.80152    0.54966    1.000
    N5847    N        0.95953    0.96556    0.62449    1.000
    N5848    N        0.97483    0.89541    0.63477    1.000
    Si5849   Si       0.95145    0.88719    0.56283    1.000
    N5850    N        0.96082    0.98747    0.51077    1.000
    N5851    N        0.98517    0.90255    0.54056    1.000
    Si5852   Si       0.95746    0.84376    0.68609    1.000
    N5853    N        0.96986    0.82535    0.64684    1.000
    N5854    N        0.94865    0.82211    0.72256    1.000
    Si5855   Si       0.97534    0.78819    0.73376    1.000
    Si5856   Si       0.94380    0.92563    0.62842    1.000
    Si5857   Si       0.96014    0.80009    0.80201    1.000
    N5858    N        0.97894    0.80585    0.84434    1.000
    N5859    N        0.97328    0.84099    0.78993    1.000
    N5860    N        0.95604    0.86871    0.84822    1.000
    Si5861   Si       0.94978    0.82970    0.86471    1.000
    Si5862   Si       0.98400    0.76553    0.86078    1.000
    Si5863   Si       0.94810    0.87916    0.80128    1.000
    N5864    N        0.96516    0.90335    0.76944    1.000
    Si5865   Si       0.95459    0.96253    0.82559    1.000
    N5866    N        0.97727    0.95244    0.86403    1.000
    N5867    N        0.98175    0.96234    0.79319    1.000
    Si5868   Si       0.96117    0.91063    0.86601    1.000
    N5869    N        0.93410    0.92215    0.82775    1.000
    N5870    N        0.93172    0.99176    0.84871    1.000
    N5871    N        0.96612    0.83495    0.90610    1.000
    Si5872   Si       0.97523    0.82060    0.94669    1.000
    N5873    N        0.93981    0.82067    0.97130    1.000
    Si5874   Si       0.98374    0.88739    0.98006    1.000
    Si5875   Si       0.93153    0.92185    0.93182    1.000
    Si5876   Si       0.93485    0.99227    0.95001    1.000
    N5877    N        0.94694    0.89127    0.95694    1.000
    N5878    N        0.95724    0.95757    0.93362    1.000
    Si5879   Si       0.95000    0.98460    0.88830    1.000
