# CIF file generated by openbabel 3.1.1, see https://openbabel.org
data_I
_chemical_name_common '3.01-26.aims'
_cell_length_a 39.8681
_cell_length_b 39.8681
_cell_length_c 39.8681
_cell_angle_alpha 90
_cell_angle_beta 90
_cell_angle_gamma 90
loop_
    _atom_site_label
    _atom_site_type_symbol
    _atom_site_fract_x
    _atom_site_fract_y
    _atom_site_fract_z
    _atom_site_occupancy
    N0       N        0.08449    0.04778    0.10272    1.000
    N1       N        0.02714    0.05865    0.02985    1.000
    Si2      Si       0.02966    0.01549    0.02893    1.000
    N3       N        0.06767    0.00834    0.01097    1.000
    Si4      Si       0.00677    0.00800    0.10231    1.000
    Si5      Si       0.07886    0.00685    0.08334    1.000
    N6       N        0.16933    0.03368    0.04878    1.000
    Si7      Si       0.21003    0.05344    0.05190    1.000
    Si8      Si       0.13961    0.05340    0.02095    1.000
    N9       N        0.23812    0.02684    0.07152    1.000
    N10      N        0.15075    0.01219    0.11927    1.000
    N11      N        0.02434    0.03678    0.13043    1.000
    Si12     Si       0.06561    0.04636    0.14095    1.000
    Si13     Si       0.04623    0.05889    0.20826    1.000
    N14      N        0.03095    0.02936    0.23805    1.000
    N15      N        0.07753    0.03948    0.18398    1.000
    Si16     Si       0.99715    0.06432    0.15185    1.000
    Si17     Si       0.17151    0.03762    0.14852    1.000
    Si18     Si       0.11739    0.04955    0.20026    1.000
    N19      N        0.12287    0.05371    0.24259    1.000
    N20      N        0.15284    0.02866    0.18632    1.000
    N21      N        0.21433    0.03318    0.15063    1.000
    N22      N        0.06078    0.04888    0.34839    1.000
    Si23     Si       0.10015    0.04275    0.27792    1.000
    Si24     Si       0.05661    0.01105    0.32727    1.000
    N25      N        0.01673    0.01019    0.30486    1.000
    N26      N        0.07809    0.00715    0.28489    1.000
    N27      N        0.19227    0.05473    0.34006    1.000
    Si28     Si       0.21178    0.04666    0.29871    1.000
    N29      N        0.12961    0.03200    0.30986    1.000
    Si30     Si       0.15251    0.03879    0.34985    1.000
    N31      N        0.08158    0.06323    0.47446    1.000
    Si32     Si       0.00662    0.04194    0.41411    1.000
    Si33     Si       0.07983    0.05127    0.38575    1.000
    N34      N        0.04938    0.03850    0.41916    1.000
    N35      N        0.99601    0.01390    0.38134    1.000
    N36      N        0.99037    0.01810    0.44712    1.000
    N37      N        0.12306    0.05590    0.37573    1.000
    N38      N        0.19608    0.03749    0.41490    1.000
    N39      N        0.20789    0.02235    0.48503    1.000
    Si40     Si       0.22526    0.02124    0.44382    1.000
    N41      N        0.13743    0.01992    0.46997    1.000
    N42      N        0.03852    0.04808    0.60851    1.000
    N43      N        0.01824    0.03443    0.51144    1.000
    N44      N        0.10635    0.03419    0.58808    1.000
    Si45     Si       0.07184    0.05917    0.58124    1.000
    Si46     Si       0.06366    0.04197    0.51034    1.000
    Si47     Si       0.99602    0.04929    0.59725    1.000
    N48      N        0.09329    0.01170    0.52385    1.000
    N49      N        0.98641    0.01083    0.57246    1.000
    Si50     Si       0.21918    0.05109    0.58447    1.000
    Si51     Si       0.16821    0.02733    0.50130    1.000
    Si52     Si       0.23619    0.01486    0.51594    1.000
    N53      N        0.20037    0.01145    0.59351    1.000
    N54      N        0.23701    0.04649    0.54514    1.000
    N55      N        0.15656    0.06787    0.50554    1.000
    N56      N        0.09420    0.02858    0.65573    1.000
    Si57     Si       0.05386    0.04609    0.64959    1.000
    N58      N        0.02921    0.06131    0.68987    1.000
    Si59     Si       0.01355    0.01864    0.69457    1.000
    N60      N        0.15947    0.04497    0.69701    1.000
    Si61     Si       0.18450    0.05330    0.66357    1.000
    Si62     Si       0.17076    0.03150    0.73705    1.000
    N63      N        0.21192    0.01982    0.65929    1.000
    Si64     Si       0.12525    0.02621    0.62638    1.000
    N65      N        0.21462    0.03142    0.73524    1.000
    N66      N        0.15522    0.05581    0.62979    1.000
    N67      N        0.02537    0.05449    0.78414    1.000
    Si68     Si       0.06205    0.04425    0.80491    1.000
    N69      N        0.04278    0.03257    0.84362    1.000
    Si70     Si       0.00812    0.01735    0.76940    1.000
    N71      N        0.08513    0.01438    0.78089    1.000
    Si72     Si       0.03500    0.06449    0.87072    1.000
    N73      N        0.15304    0.04245    0.82203    1.000
    Si74     Si       0.19637    0.03910    0.82520    1.000
    N75      N        0.22227    0.04810    0.85990    1.000
    Si76     Si       0.12727    0.01471    0.79597    1.000
    N77      N        0.20752    0.06521    0.79193    1.000
    Si78     Si       0.08497    0.02435    0.97370    1.000
    Si79     Si       0.08137    0.01929    0.90835    1.000
    N80      N        0.99565    0.06015    0.89190    1.000
    N81      N        0.06770    0.06345    0.90310    1.000
    N82      N        0.06816    0.06530    0.97192    1.000
    N83      N        0.11870    0.03226    0.92673    1.000
    N84      N        0.12603    0.02339    0.99057    1.000
    Si85     Si       0.15297    0.01929    0.95280    1.000
    N86      N        0.18790    0.04249    0.95926    1.000
    Si87     Si       0.22506    0.03469    0.93864    1.000
    Si88     Si       0.09345    0.08187    0.07783    1.000
    N89      N        0.06171    0.10929    0.08215    1.000
    Si90     Si       0.06295    0.07777    0.01337    1.000
    N91      N        0.99420    0.11415    0.06073    1.000
    N92      N        0.04911    0.11912    0.01414    1.000
    N93      N        0.09938    0.06922    0.03619    1.000
    Si94     Si       0.99273    0.08416    0.03093    1.000
    N95      N        0.13273    0.09411    0.09162    1.000
    N96      N        0.20428    0.08497    0.08076    1.000
    Si97     Si       0.17300    0.10163    0.10886    1.000
    N98      N        0.15706    0.09042    0.00685    1.000
    N99      N        0.22169    0.06753    0.01005    1.000
    Si100    Si       0.04102    0.11428    0.12090    1.000
    N101     N        0.99899    0.09999    0.12747    1.000
    Si102    Si       0.08639    0.11114    0.17998    1.000
    N103     N        0.06396    0.09114    0.14775    1.000
    N104     N        0.06436    0.09874    0.21557    1.000
    N105     N        0.00591    0.06302    0.19290    1.000
    N106     N        0.18238    0.10113    0.21850    1.000
    N107     N        0.12401    0.09220    0.18709    1.000
    N108     N        0.17563    0.08082    0.14623    1.000
    Si109    Si       0.23287    0.07402    0.15492    1.000
    Si110    Si       0.22493    0.10889    0.22290    1.000
    Si111    Si       0.16415    0.10546    0.18015    1.000
    N112     N        0.23418    0.11251    0.13830    1.000
    N113     N        0.01275    0.08423    0.30941    1.000
    Si114    Si       0.05525    0.08325    0.32202    1.000
    N115     N        0.07507    0.07615    0.28395    1.000
    Si116    Si       0.08368    0.10679    0.25506    1.000
    N117     N        0.07015    0.11893    0.33758    1.000
    N118     N        0.23754    0.11567    0.26480    1.000
    Si119    Si       0.20805    0.09010    0.35808    1.000
    N120     N        0.18416    0.07645    0.27978    1.000
    Si121    Si       0.19992    0.11542    0.29008    1.000
    N122     N        0.12454    0.11654    0.26129    1.000
    Si123    Si       0.15337    0.08543    0.24903    1.000
    N124     N        0.20821    0.12662    0.33287    1.000
    Si125    Si       0.99664    0.12195    0.47540    1.000
    Si126    Si       0.05949    0.07900    0.44201    1.000
    N127     N        0.08213    0.09056    0.40582    1.000
    N128     N        0.03281    0.11119    0.45352    1.000
    Si129    Si       0.08313    0.12613    0.37876    1.000
    Si130    Si       0.12916    0.09136    0.39946    1.000
    N131     N        0.17854    0.10170    0.39034    1.000
    N132     N        0.14321    0.08129    0.43931    1.000
    Si133    Si       0.18566    0.07835    0.42627    1.000
    N134     N        0.21109    0.10759    0.44869    1.000
    Si135    Si       0.12622    0.06263    0.47478    1.000
    Si136    Si       0.09087    0.11065    0.55058    1.000
    N137     N        0.07243    0.10465    0.59150    1.000
    N138     N        0.07060    0.07232    0.54118    1.000
    Si139    Si       0.15087    0.10498    0.52616    1.000
    N140     N        0.13194    0.09730    0.56429    1.000
    N141     N        0.19498    0.08693    0.58350    1.000
    Si142    Si       0.15417    0.09188    0.60308    1.000
    Si143    Si       0.20610    0.12396    0.56351    1.000
    N144     N        0.11928    0.12042    0.50358    1.000
    Si145    Si       0.06102    0.09038    0.69775    1.000
    N146     N        0.09514    0.08857    0.72309    1.000
    Si147    Si       0.06680    0.11987    0.63005    1.000
    N148     N        0.07543    0.08744    0.65674    1.000
    N149     N        0.20612    0.09239    0.65795    1.000
    N150     N        0.15343    0.12612    0.62889    1.000
    Si151    Si       0.13709    0.07817    0.71391    1.000
    N152     N        0.15458    0.11539    0.70023    1.000
    N153     N        0.04234    0.09963    0.84532    1.000
    Si154    Si       0.01029    0.09345    0.77618    1.000
    Si155    Si       0.07212    0.10781    0.81507    1.000
    N156     N        0.05177    0.11460    0.77629    1.000
    N157     N        0.09439    0.07209    0.81537    1.000
    Si158    Si       0.17531    0.09047    0.78206    1.000
    N159     N        0.15901    0.10730    0.81911    1.000
    Si160    Si       0.13216    0.07835    0.83707    1.000
    N161     N        0.15180    0.06852    0.75407    1.000
    Si162    Si       0.06095    0.09175    0.93881    1.000
    N163     N        0.09816    0.11230    0.93609    1.000
    N164     N        0.99152    0.10096    0.99152    1.000
    N165     N        0.21227    0.12488    0.97004    1.000
    Si166    Si       0.11998    0.07669    0.91909    1.000
    N167     N        0.13431    0.08741    0.87895    1.000
    Si168    Si       0.18816    0.08476    0.97597    1.000
    N169     N        0.20134    0.11365    0.87769    1.000
    N170     N        0.23304    0.07647    0.92348    1.000
    Si171    Si       0.23310    0.08431    0.88074    1.000
    N172     N        0.15728    0.09472    0.93942    1.000
    Si173    Si       0.16475    0.11202    0.89985    1.000
    N174     N        0.03305    0.17264    0.06109    1.000
    Si175    Si       0.01197    0.17981    0.10074    1.000
    Si176    Si       0.03493    0.13001    0.05328    1.000
    N177     N        0.00774    0.17159    0.99598    1.000
    N178     N        0.13398    0.16364    0.04633    1.000
    N179     N        0.18011    0.14354    0.09695    1.000
    N180     N        0.19532    0.13904    0.03277    1.000
    Si181    Si       0.15581    0.17519    0.08332    1.000
    Si182    Si       0.15512    0.13241    0.02329    1.000
    Si183    Si       0.21136    0.12742    0.07164    1.000
    Si184    Si       0.05694    0.17497    0.16610    1.000
    N185     N        0.03333    0.16922    0.20405    1.000
    N186     N        0.09440    0.15285    0.17071    1.000
    N187     N        0.03580    0.15688    0.13181    1.000
    Si188    Si       0.02340    0.15514    0.24428    1.000
    N189     N        0.16921    0.14357    0.16331    1.000
    Si190    Si       0.21300    0.14781    0.15666    1.000
    N191     N        0.22866    0.14542    0.19691    1.000
    Si192    Si       0.13265    0.16923    0.15933    1.000
    Si193    Si       0.06535    0.15226    0.30780    1.000
    N194     N        0.02219    0.15731    0.31760    1.000
    N195     N        0.05827    0.13976    0.26567    1.000
    N196     N        0.10938    0.16443    0.31114    1.000
    Si197    Si       0.99895    0.12486    0.30235    1.000
    Si198    Si       0.13508    0.15462    0.27582    1.000
    N199     N        0.17580    0.15362    0.28800    1.000
    Si200    Si       0.19746    0.16951    0.32419    1.000
    N201     N        0.16802    0.17969    0.35634    1.000
    N202     N        0.06315    0.15480    0.40274    1.000
    N203     N        0.07477    0.17489    0.47004    1.000
    Si204    Si       0.04674    0.15297    0.44505    1.000
    N205     N        0.01703    0.18313    0.43033    1.000
    Si206    Si       0.16580    0.14385    0.38336    1.000
    N207     N        0.12432    0.13233    0.37871    1.000
    N208     N        0.17407    0.16761    0.42008    1.000
    N209     N        0.20240    0.18210    0.48396    1.000
    Si210    Si       0.20603    0.15628    0.44960    1.000
    Si211    Si       0.03320    0.15585    0.53705    1.000
    N212     N        0.07492    0.14860    0.53736    1.000
    Si213    Si       0.00687    0.14490    0.60522    1.000
    N214     N        0.00675    0.13454    0.56234    1.000
    Si215    Si       0.09944    0.15936    0.50312    1.000
    N216     N        0.03072    0.17999    0.60266    1.000
    N217     N        0.01212    0.15455    0.49845    1.000
    N218     N        0.20919    0.15766    0.58971    1.000
    Si219    Si       0.17353    0.17749    0.51749    1.000
    N220     N        0.17878    0.13865    0.53440    1.000
    N221     N        0.04574    0.13013    0.70794    1.000
    Si222    Si       0.02199    0.15032    0.67894    1.000
    N223     N        0.08816    0.15493    0.63693    1.000
    Si224    Si       0.07261    0.13256    0.74299    1.000
    N225     N        0.02581    0.13040    0.64068    1.000
    Si226    Si       0.18049    0.13178    0.66638    1.000
    Si227    Si       0.13061    0.16162    0.63812    1.000
    N228     N        0.22277    0.15026    0.67177    1.000
    N229     N        0.11348    0.14910    0.74490    1.000
    N230     N        0.15388    0.17300    0.67113    1.000
    Si231    Si       0.15488    0.14606    0.73297    1.000
    N232     N        0.02693    0.16935    0.82554    1.000
    N233     N        0.09642    0.14011    0.82883    1.000
    Si234    Si       0.01303    0.12816    0.83738    1.000
    N235     N        0.06185    0.17767    0.75811    1.000
    Si236    Si       0.02779    0.18096    0.78225    1.000
    N237     N        0.98956    0.16529    0.76545    1.000
    N238     N        0.18390    0.12759    0.76205    1.000
    Si239    Si       0.18821    0.13317    0.84031    1.000
    N240     N        0.16070    0.16685    0.85187    1.000
    Si241    Si       0.21822    0.14867    0.77854    1.000
    Si242    Si       0.12224    0.17520    0.83350    1.000
    N243     N        0.22831    0.13096    0.81793    1.000
    Si244    Si       0.01715    0.15222    0.91139    1.000
    Si245    Si       0.01971    0.13217    0.98118    1.000
    N246     N        0.99683    0.13013    0.87854    1.000
    N247     N        0.04713    0.17292    0.89155    1.000
    N248     N        0.03198    0.12303    0.94068    1.000
    Si249    Si       0.17332    0.18574    0.89431    1.000
    N250     N        0.14373    0.15251    0.98614    1.000
    N251     N        0.15319    0.15117    0.91368    1.000
    Si252    Si       0.13537    0.13306    0.94841    1.000
    Si253    Si       0.21670    0.15721    0.00002    1.000
    N254     N        0.03138    0.23145    0.02202    1.000
    N255     N        0.00371    0.22148    0.11167    1.000
    Si256    Si       0.04054    0.18985    0.02107    1.000
    N257     N        0.08118    0.18488    0.01040    1.000
    Si258    Si       0.99241    0.24431    0.00830    1.000
    N259     N        0.17788    0.21000    0.07517    1.000
    Si260    Si       0.23199    0.22952    0.02227    1.000
    N261     N        0.13291    0.18888    0.12091    1.000
    Si262    Si       0.12291    0.18529    0.01174    1.000
    N263     N        0.05129    0.23650    0.23054    1.000
    N264     N        0.04741    0.21934    0.16489    1.000
    Si265    Si       0.02284    0.21040    0.20965    1.000
    N266     N        0.98988    0.22567    0.18752    1.000
    Si267    Si       0.01052    0.24037    0.14956    1.000
    N268     N        0.21826    0.22751    0.17339    1.000
    Si269    Si       0.21592    0.23089    0.21718    1.000
    N270     N        0.23416    0.19689    0.24356    1.000
    N271     N        0.13165    0.20826    0.18095    1.000
    Si272    Si       0.13699    0.21764    0.22088    1.000
    Si273    Si       0.13184    0.22863    0.14194    1.000
    N274     N        0.17566    0.23905    0.22498    1.000
    N275     N        0.06811    0.21465    0.29448    1.000
    N276     N        0.03171    0.21173    0.36153    1.000
    N277     N        0.09972    0.21304    0.36013    1.000
    Si278    Si       0.06522    0.22641    0.33716    1.000
    Si279    Si       0.03342    0.22727    0.26874    1.000
    N280     N        0.00573    0.19778    0.25236    1.000
    Si281    Si       0.10827    0.21859    0.27569    1.000
    Si282    Si       0.00200    0.18464    0.34474    1.000
    Si283    Si       0.22636    0.22803    0.35277    1.000
    N284     N        0.22236    0.20360    0.31758    1.000
    N285     N        0.13685    0.22441    0.30690    1.000
    Si286    Si       0.13016    0.19214    0.33703    1.000
    N287     N        0.12576    0.18711    0.24990    1.000
    Si288    Si       0.10485    0.23678    0.39642    1.000
    Si289    Si       0.04638    0.19396    0.39932    1.000
    Si290    Si       0.06966    0.21975    0.46553    1.000
    N291     N        0.02806    0.22919    0.47907    1.000
    N292     N        0.07217    0.22109    0.42070    1.000
    Si293    Si       0.24103    0.20151    0.49057    1.000
    N294     N        0.14790    0.23961    0.39735    1.000
    Si295    Si       0.17599    0.20624    0.39552    1.000
    N296     N        0.21961    0.21072    0.39135    1.000
    N297     N        0.02967    0.20082    0.53757    1.000
    N298     N        0.09420    0.22255    0.55866    1.000
    Si299    Si       0.01127    0.20819    0.57726    1.000
    Si300    Si       0.05783    0.23307    0.53382    1.000
    N301     N        0.09170    0.23737    0.49862    1.000
    Si302    Si       0.00740    0.19736    0.49923    1.000
    Si303    Si       0.11142    0.22209    0.59813    1.000
    Si304    Si       0.17968    0.18877    0.59077    1.000
    Si305    Si       0.12401    0.22321    0.52746    1.000
    N306     N        0.17096    0.20650    0.55060    1.000
    N307     N        0.19841    0.22681    0.60379    1.000
    N308     N        0.13911    0.19115    0.60829    1.000
    N309     N        0.13264    0.18648    0.50729    1.000
    N310     N        0.07994    0.22528    0.62746    1.000
    Si311    Si       0.01614    0.22865    0.67519    1.000
    N312     N        0.02790    0.23623    0.72011    1.000
    N313     N        0.03714    0.18952    0.67122    1.000
    Si314    Si       0.99478    0.23736    0.74611    1.000
    N315     N        0.10288    0.23043    0.74751    1.000
    Si316    Si       0.05918    0.24011    0.74980    1.000
    Si317    Si       0.05935    0.18782    0.63349    1.000
    Si318    Si       0.17441    0.20732    0.69083    1.000
    N319     N        0.16914    0.19038    0.73124    1.000
    N320     N        0.21368    0.21725    0.67210    1.000
    N321     N        0.02749    0.22651    0.78094    1.000
    N322     N        0.09432    0.20284    0.85136    1.000
    N323     N        0.03208    0.23393    0.85118    1.000
    Si324    Si       0.05161    0.19358    0.85383    1.000
    Si325    Si       0.10322    0.18977    0.75908    1.000
    Si326    Si       0.17013    0.20189    0.77197    1.000
    Si327    Si       0.21518    0.20210    0.83532    1.000
    N328     N        0.18989    0.23799    0.84110    1.000
    N329     N        0.13330    0.18983    0.79099    1.000
    N330     N        0.20457    0.18698    0.79452    1.000
    Si331    Si       0.10731    0.23353    0.87981    1.000
    N332     N        0.20711    0.20084    0.00073    1.000
    Si333    Si       0.23578    0.19122    0.91452    1.000
    N334     N        0.21569    0.18715    0.87669    1.000
    N335     N        0.14673    0.22067    0.89505    1.000
    N336     N        0.19669    0.19875    0.93600    1.000
    Si337    Si       0.18024    0.21942    0.97290    1.000
    N338     N        0.14201    0.21973    0.99474    1.000
    Si339    Si       0.06529    0.25926    0.01621    1.000
    N340     N        0.05003    0.29780    0.03103    1.000
    N341     N        0.09993    0.25212    0.04250    1.000
    Si342    Si       0.11234    0.26283    0.08264    1.000
    N343     N        0.99510    0.28385    0.08074    1.000
    Si344    Si       0.00884    0.30451    0.04234    1.000
    N345     N        0.15429    0.27115    0.08478    1.000
    N346     N        0.20868    0.26387    0.03814    1.000
    N347     N        0.21941    0.25653    0.11006    1.000
    N348     N        0.14973    0.29423    0.01308    1.000
    Si349    Si       0.12504    0.25800    0.00644    1.000
    Si350    Si       0.19110    0.28616    0.00428    1.000
    Si351    Si       0.19120    0.25046    0.07637    1.000
    Si352    Si       0.14634    0.29728    0.12214    1.000
    Si353    Si       0.06971    0.25705    0.15431    1.000
    N354     N        0.03376    0.27714    0.14048    1.000
    Si355    Si       0.08029    0.26809    0.23091    1.000
    N356     N        0.08571    0.27688    0.18883    1.000
    N357     N        0.09927    0.25041    0.12326    1.000
    N358     N        0.24101    0.26274    0.22845    1.000
    N359     N        0.21897    0.29424    0.17307    1.000
    Si360    Si       0.15624    0.27308    0.24573    1.000
    Si361    Si       0.20322    0.26031    0.15149    1.000
    N362     N        0.16074    0.26132    0.14663    1.000
    N363     N        0.06521    0.26901    0.33539    1.000
    N364     N        0.01395    0.25821    0.29121    1.000
    Si365    Si       0.04363    0.28887    0.30317    1.000
    N366     N        0.06744    0.29351    0.26478    1.000
    N367     N        0.17695    0.28116    0.28513    1.000
    Si368    Si       0.16053    0.25944    0.31757    1.000
    N369     N        0.13825    0.28883    0.34192    1.000
    N370     N        0.18903    0.25242    0.35022    1.000
    N371     N        0.11712    0.25052    0.24588    1.000
    Si372    Si       0.07395    0.29665    0.36866    1.000
    Si373    Si       0.02621    0.27197    0.48586    1.000
    N374     N        0.09610    0.27919    0.40163    1.000
    N375     N        0.06109    0.29048    0.46736    1.000
    Si376    Si       0.09440    0.28089    0.49339    1.000
    N377     N        0.13122    0.28771    0.47084    1.000
    Si378    Si       0.16469    0.28003    0.37605    1.000
    Si379    Si       0.23396    0.27548    0.45829    1.000
    N380     N        0.22895    0.29142    0.41742    1.000
    N381     N        0.20567    0.27622    0.49063    1.000
    Si382    Si       0.23863    0.29005    0.37497    1.000
    N383     N        0.03933    0.27361    0.52838    1.000
    N384     N        0.07483    0.29073    0.60485    1.000
    Si385    Si       0.00645    0.27539    0.55720    1.000
    Si386    Si       0.05137    0.25793    0.61862    1.000
    N387     N        0.02620    0.24721    0.58337    1.000
    Si388    Si       0.11994    0.29578    0.61045    1.000
    N389     N        0.13741    0.25758    0.59865    1.000
    N390     N        0.20304    0.28013    0.56173    1.000
    N391     N        0.15001    0.25826    0.52940    1.000
    Si392    Si       0.23158    0.27058    0.52629    1.000
    Si393    Si       0.17162    0.24747    0.57109    1.000
    Si394    Si       0.16497    0.28596    0.49852    1.000
    Si395    Si       0.00261    0.29625    0.64897    1.000
    N396     N        0.02954    0.26412    0.65448    1.000
    N397     N        0.19180    0.27938    0.64779    1.000
    Si398    Si       0.14107    0.25471    0.73875    1.000
    N399     N        0.15289    0.24615    0.69764    1.000
    Si400    Si       0.15820    0.28312    0.67459    1.000
    Si401    Si       0.21707    0.24555    0.63785    1.000
    N402     N        0.13454    0.29612    0.74958    1.000
    N403     N        0.02351    0.29338    0.80919    1.000
    Si404    Si       0.01339    0.25089    0.81378    1.000
    N405     N        0.06127    0.28459    0.75556    1.000
    N406     N        0.04509    0.29553    0.87199    1.000
    Si407    Si       0.02340    0.30297    0.76651    1.000
    N408     N        0.22788    0.27249    0.79967    1.000
    Si409    Si       0.18519    0.26387    0.80698    1.000
    N410     N        0.12830    0.26719    0.86264    1.000
    N411     N        0.16805    0.24361    0.77188    1.000
    Si412    Si       0.16847    0.25448    0.87428    1.000
    N413     N        0.07918    0.24721    0.90981    1.000
    N414     N        0.00509    0.25983    0.91359    1.000
    N415     N        0.09083    0.26480    0.98025    1.000
    Si416    Si       0.09329    0.27613    0.93818    1.000
    Si417    Si       0.04044    0.25683    0.88899    1.000
    Si418    Si       0.17776    0.28737    0.93663    1.000
    N419     N        0.18862    0.26147    0.96826    1.000
    N420     N        0.19769    0.27388    0.89987    1.000
    N421     N        0.13496    0.29007    0.92834    1.000
    Si422    Si       0.07674    0.32164    0.05791    1.000
    N423     N        0.03922    0.33095    0.08264    1.000
    N424     N        0.10262    0.34389    0.03271    1.000
    N425     N        0.99957    0.34595    0.03519    1.000
    Si426    Si       0.01718    0.30429    0.11152    1.000
    N427     N        0.10494    0.30663    0.08984    1.000
    Si428    Si       0.21679    0.34843    0.02590    1.000
    N429     N        0.18226    0.34172    0.05034    1.000
    Si430    Si       0.20625    0.34390    0.08932    1.000
    Si431    Si       0.14482    0.33540    0.02745    1.000
    N432     N        0.17908    0.32633    0.11920    1.000
    N433     N        0.22329    0.31421    0.00062    1.000
    N434     N        0.08660    0.33804    0.21771    1.000
    N435     N        0.99068    0.33561    0.12800    1.000
    N436     N        0.01728    0.35741    0.19833    1.000
    Si437    Si       0.11270    0.31247    0.19388    1.000
    N438     N        0.14822    0.30759    0.22072    1.000
    Si439    Si       0.15692    0.35697    0.14423    1.000
    Si440    Si       0.22265    0.33533    0.15651    1.000
    N441     N        0.12893    0.32446    0.15580    1.000
    Si442    Si       0.17954    0.33888    0.21793    1.000
    N443     N        0.21066    0.32075    0.23977    1.000
    N444     N        0.18747    0.35493    0.17713    1.000
    N445     N        0.02431    0.32596    0.31496    1.000
    Si446    Si       0.08179    0.33546    0.26201    1.000
    N447     N        0.09241    0.33559    0.35973    1.000
    N448     N        0.11439    0.33369    0.29046    1.000
    Si449    Si       0.01475    0.36248    0.29349    1.000
    Si450    Si       0.21140    0.30801    0.28059    1.000
    Si451    Si       0.12434    0.32737    0.33058    1.000
    N452     N        0.19920    0.34447    0.30166    1.000
    Si453    Si       0.19405    0.34528    0.34417    1.000
    N454     N        0.15268    0.35663    0.34671    1.000
    N455     N        0.19887    0.31023    0.36814    1.000
    Si456    Si       0.02048    0.34739    0.39945    1.000
    Si457    Si       0.05294    0.33337    0.46116    1.000
    N458     N        0.09172    0.34028    0.44022    1.000
    N459     N        0.01435    0.33760    0.43966    1.000
    N460     N        0.03544    0.30739    0.38341    1.000
    N461     N        0.21302    0.35189    0.43710    1.000
    Si462    Si       0.11836    0.30287    0.43155    1.000
    Si463    Si       0.19634    0.32140    0.41131    1.000
    N464     N        0.15615    0.30762    0.41139    1.000
    Si465    Si       0.05717    0.33282    0.60717    1.000
    Si466    Si       0.04925    0.31954    0.53713    1.000
    N467     N        0.01385    0.31918    0.56460    1.000
    N468     N        0.06919    0.34913    0.56799    1.000
    N469     N        0.04192    0.34636    0.50194    1.000
    Si470    Si       0.10920    0.33989    0.55129    1.000
    N471     N        0.09301    0.30855    0.52663    1.000
    N472     N        0.16526    0.32546    0.51924    1.000
    N473     N        0.20575    0.34206    0.57399    1.000
    N474     N        0.13644    0.32284    0.58092    1.000
    Si475    Si       0.17425    0.31583    0.56094    1.000
    Si476    Si       0.23552    0.31076    0.57839    1.000
    N477     N        0.02340    0.33246    0.63322    1.000
    Si478    Si       0.10630    0.34074    0.66782    1.000
    N479     N        0.07176    0.35114    0.69427    1.000
    Si480    Si       0.06025    0.35738    0.73675    1.000
    N481     N        0.02259    0.34111    0.74678    1.000
    N482     N        0.08291    0.35579    0.63321    1.000
    Si483    Si       0.16794    0.32504    0.73937    1.000
    N484     N        0.12542    0.30308    0.65470    1.000
    N485     N        0.18063    0.31170    0.70029    1.000
    N486     N        0.20951    0.35449    0.64762    1.000
    Si487    Si       0.21201    0.31514    0.66829    1.000
    N488     N        0.09055    0.34663    0.76559    1.000
    Si489    Si       0.05381    0.31138    0.83343    1.000
    N490     N        0.04198    0.35115    0.84893    1.000
    Si491    Si       0.09721    0.30382    0.77114    1.000
    N492     N        0.09248    0.30498    0.81385    1.000
    N493     N        0.99160    0.36483    0.79579    1.000
    N494     N        0.12039    0.33542    0.87105    1.000
    N495     N        0.19965    0.32692    0.77044    1.000
    Si496    Si       0.18053    0.33979    0.80835    1.000
    Si497    Si       0.12655    0.30446    0.83955    1.000
    N498     N        0.16732    0.30187    0.82196    1.000
    N499     N        0.00480    0.33599    0.91208    1.000
    N500     N        0.07702    0.31697    0.92404    1.000
    Si501    Si       0.04789    0.33780    0.89581    1.000
    Si502    Si       0.23475    0.32279    0.95730    1.000
    Si503    Si       0.11687    0.32723    0.91351    1.000
    N504     N        0.19159    0.32712    0.94653    1.000
    Si505    Si       0.16536    0.36012    0.95749    1.000
    N506     N        0.05583    0.39476    0.08280    1.000
    Si507    Si       0.10581    0.37930    0.00769    1.000
    N508     N        0.02617    0.40668    0.02760    1.000
    Si509    Si       0.02419    0.37094    0.06412    1.000
    N510     N        0.09809    0.41459    0.03152    1.000
    N511     N        0.20553    0.38836    0.09589    1.000
    Si512    Si       0.16754    0.40467    0.08554    1.000
    N513     N        0.21917    0.38658    0.00567    1.000
    N514     N        0.16553    0.41392    0.04409    1.000
    Si515    Si       0.17773    0.40441    0.00065    1.000
    N516     N        0.14175    0.38346    0.11555    1.000
    Si517    Si       0.06248    0.40228    0.12465    1.000
    N518     N        0.07565    0.40496    0.21355    1.000
    Si519    Si       0.05977    0.36524    0.19634    1.000
    N520     N        0.06829    0.37455    0.15534    1.000
    N521     N        0.01396    0.41007    0.23954    1.000
    Si522    Si       0.16321    0.41364    0.21474    1.000
    N523     N        0.13919    0.41515    0.17861    1.000
    N524     N        0.17512    0.37742    0.23615    1.000
    N525     N        0.10199    0.40057    0.34172    1.000
    Si526    Si       0.05543    0.40427    0.25270    1.000
    N527     N        0.05251    0.36632    0.27057    1.000
    N528     N        0.99048    0.39080    0.31923    1.000
    Si529    Si       0.19354    0.37977    0.27605    1.000
    N530     N        0.16170    0.40609    0.29643    1.000
    Si531    Si       0.14535    0.39759    0.33491    1.000
    N532     N        0.23417    0.39508    0.28306    1.000
    N533     N        0.21874    0.37326    0.36773    1.000
    Si534    Si       0.08905    0.37668    0.37414    1.000
    N535     N        0.04843    0.38071    0.39182    1.000
    N536     N        0.08614    0.40710    0.46705    1.000
    N537     N        0.01531    0.40752    0.47503    1.000
    Si538    Si       0.11326    0.37868    0.44785    1.000
    N539     N        0.18517    0.41331    0.41830    1.000
    N540     N        0.21215    0.41542    0.47475    1.000
    N541     N        0.15069    0.37455    0.46893    1.000
    Si542    Si       0.18954    0.38579    0.45066    1.000
    Si543    Si       0.21083    0.41507    0.37948    1.000
    N544     N        0.11833    0.39027    0.40357    1.000
    Si545    Si       0.02627    0.38606    0.51068    1.000
    N546     N        0.05728    0.40714    0.53107    1.000
    N547     N        0.02780    0.39268    0.59542    1.000
    Si548    Si       0.06475    0.39256    0.57263    1.000
    Si549    Si       0.09545    0.41050    0.51168    1.000
    Si550    Si       0.00049    0.36067    0.57633    1.000
    N551     N        0.11766    0.37746    0.53194    1.000
    Si552    Si       0.15818    0.36965    0.51237    1.000
    N553     N        0.18359    0.39293    0.53855    1.000
    Si554    Si       0.19883    0.38548    0.57885    1.000
    N555     N        0.17013    0.39316    0.61064    1.000
    Si556    Si       0.13539    0.41955    0.60527    1.000
    N557     N        0.24037    0.39597    0.59029    1.000
    Si558    Si       0.05541    0.37918    0.66120    1.000
    N559     N        0.01347    0.39519    0.65624    1.000
    N560     N        0.05304    0.40099    0.74116    1.000
    N561     N        0.07371    0.41513    0.67456    1.000
    N562     N        0.15152    0.36325    0.74706    1.000
    Si563    Si       0.11625    0.41191    0.67641    1.000
    N564     N        0.18616    0.40119    0.69058    1.000
    N565     N        0.13571    0.37367    0.66856    1.000
    Si566    Si       0.16155    0.39866    0.72640    1.000
    Si567    Si       0.17545    0.37985    0.65164    1.000
    N568     N        0.12331    0.42197    0.71854    1.000
    Si569    Si       0.01237    0.37796    0.83218    1.000
    N570     N        0.10478    0.40800    0.85270    1.000
    N571     N        0.11015    0.41363    0.78102    1.000
    N572     N        0.03572    0.41412    0.83063    1.000
    Si573    Si       0.06319    0.40643    0.86807    1.000
    Si574    Si       0.12376    0.37292    0.77835    1.000
    Si575    Si       0.19186    0.40445    0.83987    1.000
    Si576    Si       0.13329    0.37489    0.85835    1.000
    N577     N        0.21029    0.36936    0.82589    1.000
    N578     N        0.14250    0.36247    0.81560    1.000
    N579     N        0.99862    0.37389    0.97180    1.000
    N580     N        0.06671    0.37831    0.90221    1.000
    Si581    Si       0.09405    0.39021    0.93534    1.000
    Si582    Si       0.03294    0.39743    0.98333    1.000
    N583     N        0.07638    0.38251    0.97627    1.000
    N584     N        0.99720    0.40749    0.90660    1.000
    Si585    Si       0.98780    0.37191    0.92979    1.000
    Si586    Si       0.22977    0.39499    0.95512    1.000
    N587     N        0.23196    0.40901    0.90961    1.000
    Si588    Si       0.18913    0.41430    0.90812    1.000
    N589     N        0.18561    0.39681    0.94935    1.000
    N590     N        0.16929    0.39379    0.87402    1.000
    N591     N        0.12784    0.36173    0.93552    1.000
    N592     N        0.14900    0.36819    0.99737    1.000
    N593     N        0.06610    0.46023    0.07965    1.000
    N594     N        0.05732    0.47179    0.01856    1.000
    Si595    Si       0.05983    0.42679    0.05115    1.000
    Si596    Si       0.06248    0.46307    0.12522    1.000
    Si597    Si       0.13413    0.43960    0.02806    1.000
    N598     N        0.16160    0.44385    0.10822    1.000
    Si599    Si       0.19057    0.47360    0.10595    1.000
    Si600    Si       0.23086    0.47652    0.04862    1.000
    N601     N        0.23697    0.43377    0.05494    1.000
    Si602    Si       0.23772    0.42027    0.09629    1.000
    N603     N        0.22986    0.45702    0.11891    1.000
    Si604    Si       0.99064    0.44516    0.23172    1.000
    N605     N        0.09723    0.46950    0.19487    1.000
    Si606    Si       0.09814    0.42877    0.18418    1.000
    N607     N        0.03145    0.43437    0.13945    1.000
    N608     N        0.09280    0.43302    0.13737    1.000
    Si609    Si       0.99196    0.43289    0.15110    1.000
    Si610    Si       0.24136    0.44575    0.20111    1.000
    N611     N        0.19952    0.43220    0.20424    1.000
    N612     N        0.14184    0.44064    0.24101    1.000
    Si613    Si       0.13457    0.42187    0.13651    1.000
    Si614    Si       0.12198    0.47653    0.22955    1.000
    N615     N        0.05267    0.44136    0.35286    1.000
    Si616    Si       0.08527    0.43717    0.32415    1.000
    N617     N        0.99797    0.46825    0.31941    1.000
    N618     N        0.06986    0.42871    0.28500    1.000
    N619     N        0.11920    0.46160    0.31152    1.000
    N620     N        0.22672    0.43677    0.34296    1.000
    Si621    Si       0.14969    0.44520    0.28293    1.000
    Si622    Si       0.18987    0.46080    0.33663    1.000
    N623     N        0.18493    0.46902    0.29371    1.000
    N624     N        0.16703    0.42844    0.35979    1.000
    Si625    Si       0.05002    0.43348    0.46342    1.000
    N626     N        0.04757    0.44403    0.42180    1.000
    N627     N        0.05942    0.46716    0.48735    1.000
    Si628    Si       0.03311    0.42192    0.38574    1.000
    N629     N        0.99062    0.42820    0.37600    1.000
    N630     N        0.13916    0.46303    0.41093    1.000
    Si631    Si       0.14588    0.42290    0.39919    1.000
    Si632    Si       0.22046    0.43862    0.43890    1.000
    Si633    Si       0.07411    0.45925    0.60266    1.000
    N634     N        0.05462    0.47712    0.56936    1.000
    Si635    Si       0.01350    0.42559    0.61987    1.000
    N636     N        0.11522    0.44754    0.51970    1.000
    N637     N        0.09236    0.41951    0.59274    1.000
    N638     N        0.18311    0.46292    0.52714    1.000
    N639     N        0.15157    0.45704    0.58757    1.000
    Si640    Si       0.14147    0.46699    0.54594    1.000
    Si641    Si       0.20461    0.42563    0.51873    1.000
    Si642    Si       0.05346    0.45501    0.67466    1.000
    N643     N        0.04319    0.45278    0.63192    1.000
    N644     N        0.01785    0.45040    0.69996    1.000
    Si645    Si       0.02658    0.43522    0.74059    1.000
    Si646    Si       0.09020    0.42592    0.74567    1.000
    N647     N        0.18840    0.46806    0.70044    1.000
    N648     N        0.13388    0.43642    0.64589    1.000
    Si649    Si       0.20847    0.43194    0.71312    1.000
    Si650    Si       0.14032    0.47440    0.62502    1.000
    Si651    Si       0.01273    0.45098    0.81642    1.000
    N652     N        0.00193    0.44445    0.77470    1.000
    N653     N        0.10173    0.46854    0.82008    1.000
    N654     N        0.06445    0.46407    0.74919    1.000
    N655     N        0.18718    0.42397    0.75061    1.000
    Si656    Si       0.12184    0.43011    0.81855    1.000
    Si657    Si       0.21769    0.47201    0.83763    1.000
    Si658    Si       0.18105    0.45231    0.78172    1.000
    N659     N        0.22291    0.43140    0.85056    1.000
    N660     N        0.16550    0.43221    0.81605    1.000
    N661     N        0.22048    0.46666    0.79426    1.000
    N662     N        0.98840    0.47326    0.91401    1.000
    Si663    Si       0.03776    0.47038    0.97880    1.000
    N664     N        0.05318    0.44520    0.88993    1.000
    Si665    Si       0.08419    0.46488    0.91358    1.000
    Si666    Si       0.01941    0.44247    0.91573    1.000
    N667     N        0.03050    0.43307    0.95763    1.000
    N668     N        0.10818    0.43343    0.93249    1.000
    N669     N        0.17061    0.45421    0.91530    1.000
    N670     N        0.15498    0.43961    0.98830    1.000
    Si671    Si       0.14287    0.45416    0.94796    1.000
    Si672    Si       0.08218    0.48834    0.04979    1.000
    N673     N        0.07928    0.52942    0.05997    1.000
    N674     N        0.00933    0.53218    0.02985    1.000
    Si675    Si       0.15589    0.50554    0.04962    1.000
    N676     N        0.16505    0.52659    0.01155    1.000
    N677     N        0.22914    0.49274    0.00813    1.000
    N678     N        0.19149    0.48676    0.06474    1.000
    Si679    Si       0.20666    0.52934    0.99767    1.000
    N680     N        0.12400    0.47761    0.04310    1.000
    N681     N        0.99909    0.52805    0.13443    1.000
    N682     N        0.04836    0.51781    0.20672    1.000
    N683     N        0.06380    0.50281    0.13773    1.000
    Si684    Si       0.07929    0.50596    0.17875    1.000
    Si685    Si       0.04019    0.53770    0.12668    1.000
    N686     N        0.10980    0.53670    0.18339    1.000
    Si687    Si       0.05200    0.50512    0.24675    1.000
    Si688    Si       0.24543    0.51927    0.21350    1.000
    Si689    Si       0.23917    0.49323    0.14178    1.000
    N690     N        0.15467    0.50640    0.23395    1.000
    N691     N        0.20098    0.51160    0.12715    1.000
    N692     N        0.24085    0.48542    0.18381    1.000
    N693     N        0.06576    0.49931    0.31866    1.000
    N694     N        0.09234    0.49590    0.25815    1.000
    Si695    Si       0.10677    0.50528    0.29822    1.000
    N696     N        0.01501    0.47876    0.25001    1.000
    Si697    Si       0.03446    0.47871    0.34233    1.000
    N698     N        0.17944    0.49456    0.36172    1.000
    N699     N        0.15076    0.52350    0.29965    1.000
    Si700    Si       0.18174    0.50741    0.26862    1.000
    Si701    Si       0.16807    0.53077    0.33988    1.000
    N702     N        0.22149    0.50508    0.25033    1.000
    N703     N        0.02510    0.50013    0.37811    1.000
    Si704    Si       0.04243    0.48751    0.41715    1.000
    N705     N        0.01486    0.49943    0.45040    1.000
    N706     N        0.08060    0.50867    0.41575    1.000
    Si707    Si       0.99807    0.53283    0.38855    1.000
    Si708    Si       0.02828    0.50385    0.49382    1.000
    Si709    Si       0.22880    0.53523    0.49433    1.000
    N710     N        0.15157    0.52439    0.42098    1.000
    Si711    Si       0.15259    0.53251    0.46676    1.000
    Si712    Si       0.11752    0.49422    0.42951    1.000
    N713     N        0.18538    0.52290    0.49364    1.000
    Si714    Si       0.17453    0.49013    0.40481    1.000
    N715     N        0.21092    0.47886    0.42507    1.000
    N716     N        0.12185    0.50181    0.47289    1.000
    Si717    Si       0.07711    0.51193    0.55667    1.000
    N718     N        0.06402    0.52117    0.51540    1.000
    N719     N        0.00502    0.51736    0.59462    1.000
    N720     N        0.99881    0.49074    0.52809    1.000
    Si721    Si       0.09587    0.48705    0.50407    1.000
    Si722    Si       0.01186    0.48128    0.57153    1.000
    N723     N        0.11776    0.50388    0.54541    1.000
    N724     N        0.17833    0.52021    0.56860    1.000
    Si725    Si       0.19252    0.52176    0.60900    1.000
    Si726    Si       0.19489    0.50425    0.53248    1.000
    N727     N        0.23382    0.51189    0.61502    1.000
    N728     N        0.23706    0.51487    0.53164    1.000
    N729     N        0.09998    0.49022    0.62168    1.000
    Si730    Si       0.09025    0.51965    0.65235    1.000
    N731     N        0.07692    0.49345    0.68578    1.000
    Si732    Si       0.07187    0.50607    0.72930    1.000
    N733     N        0.99044    0.51664    0.68429    1.000
    N734     N        0.04614    0.54208    0.72480    1.000
    N735     N        0.21324    0.52069    0.67965    1.000
    Si736    Si       0.18491    0.50038    0.73038    1.000
    N737     N        0.17362    0.49573    0.63982    1.000
    N738     N        0.16154    0.53333    0.71482    1.000
    N739     N        0.22941    0.50025    0.73807    1.000
    Si740    Si       0.17031    0.53210    0.67018    1.000
    Si741    Si       0.20958    0.47999    0.66317    1.000
    Si742    Si       0.03323    0.52405    0.82941    1.000
    N743     N        0.09372    0.51450    0.76803    1.000
    Si744    Si       0.10057    0.50277    0.84788    1.000
    N745     N        0.99843    0.52177    0.85657    1.000
    N746     N        0.06866    0.53095    0.85260    1.000
    N747     N        0.03817    0.48549    0.81182    1.000
    Si748    Si       0.07393    0.48272    0.78909    1.000
    Si749    Si       0.13399    0.52029    0.78441    1.000
    N750     N        0.16297    0.48987    0.76739    1.000
    N751     N        0.13325    0.52700    0.82908    1.000
    Si752    Si       0.16810    0.53105    0.85345    1.000
    N753     N        0.18491    0.49033    0.85685    1.000
    N754     N        0.06285    0.48854    0.94570    1.000
    N755     N        0.10732    0.48990    0.88760    1.000
    Si756    Si       0.06979    0.53130    0.95400    1.000
    N757     N        0.99591    0.48251    0.98524    1.000
    N758     N        0.13511    0.49678    0.95064    1.000
    N759     N        0.23174    0.49286    0.90901    1.000
    Si760    Si       0.13589    0.53146    0.97962    1.000
    Si761    Si       0.18677    0.48991    0.90006    1.000
    Si762    Si       0.12542    0.51790    0.91594    1.000
    N763     N        0.16447    0.52982    0.89818    1.000
    N764     N        0.05234    0.58138    0.02699    1.000
    N765     N        0.08736    0.58241    0.10558    1.000
    N766     N        0.02687    0.56309    0.09301    1.000
    Si767    Si       0.04168    0.54814    0.05362    1.000
    Si768    Si       0.09188    0.57497    0.00981    1.000
    Si769    Si       0.01074    0.56596    0.00105    1.000
    Si770    Si       0.10995    0.55689    0.07633    1.000
    N771     N        0.12080    0.58266    0.04104    1.000
    N772     N        0.22504    0.55411    0.08087    1.000
    Si773    Si       0.22053    0.58495    0.04998    1.000
    N774     N        0.22635    0.56512    0.01182    1.000
    Si775    Si       0.18818    0.54542    0.10179    1.000
    N776     N        0.14857    0.53670    0.08111    1.000
    N777     N        0.04838    0.56544    0.16066    1.000
    Si778    Si       0.08734    0.57327    0.18076    1.000
    N779     N        0.06633    0.58568    0.21834    1.000
    Si780    Si       0.03076    0.55753    0.19942    1.000
    N781     N        0.99992    0.56289    0.22877    1.000
    Si782    Si       0.20089    0.57972    0.23114    1.000
    Si783    Si       0.16167    0.59392    0.16619    1.000
    N784     N        0.18056    0.58062    0.12710    1.000
    Si785    Si       0.14071    0.54154    0.21194    1.000
    N786     N        0.17190    0.56951    0.20162    1.000
    N787     N        0.23827    0.56209    0.21728    1.000
    N788     N        0.12080    0.56247    0.24478    1.000
    Si789    Si       0.07947    0.57088    0.25949    1.000
    N790     N        0.09665    0.55554    0.30253    1.000
    N791     N        0.06982    0.55638    0.35728    1.000
    Si792    Si       0.00143    0.55045    0.27368    1.000
    Si793    Si       0.10573    0.57748    0.33817    1.000
    N794     N        0.01260    0.54855    0.32167    1.000
    N795     N        0.04739    0.54292    0.26964    1.000
    Si796    Si       0.05479    0.54145    0.31657    1.000
    N797     N        0.18946    0.56233    0.27197    1.000
    Si798    Si       0.14458    0.56383    0.28154    1.000
    N799     N        0.20531    0.55472    0.34154    1.000
    N800     N        0.14017    0.55903    0.35684    1.000
    Si801    Si       0.22033    0.57377    0.30390    1.000
    Si802    Si       0.01918    0.57084    0.45354    1.000
    N803     N        0.06018    0.57814    0.46661    1.000
    N804     N        0.10075    0.57476    0.41157    1.000
    N805     N        0.02843    0.55486    0.41428    1.000
    Si806    Si       0.06912    0.54660    0.39825    1.000
    Si807    Si       0.09793    0.59108    0.45296    1.000
    N808     N        0.01333    0.54897    0.49409    1.000
    N809     N        0.13199    0.56984    0.46950    1.000
    Si810    Si       0.14126    0.56135    0.40234    1.000
    Si811    Si       0.21270    0.56880    0.38246    1.000
    N812     N        0.18073    0.58239    0.40661    1.000
    N813     N        0.09752    0.57779    0.52396    1.000
    Si814    Si       0.09323    0.57812    0.56705    1.000
    N815     N        0.00311    0.57806    0.59647    1.000
    Si816    Si       0.05937    0.56488    0.50930    1.000
    N817     N        0.06484    0.54690    0.57731    1.000
    Si818    Si       0.03318    0.54695    0.60781    1.000
    Si819    Si       0.99376    0.57693    0.52309    1.000
    N820     N        0.03438    0.59432    0.53262    1.000
    N821     N        0.23215    0.57856    0.59213    1.000
    N822     N        0.12572    0.55977    0.58750    1.000
    N823     N        0.16241    0.57768    0.53577    1.000
    N824     N        0.23274    0.57749    0.50163    1.000
    Si825    Si       0.14388    0.54146    0.55175    1.000
    Si826    Si       0.13569    0.59889    0.50393    1.000
    N827     N        0.01002    0.58433    0.68067    1.000
    Si828    Si       0.04764    0.56415    0.68518    1.000
    N829     N        0.05481    0.54464    0.64552    1.000
    N830     N        0.07902    0.59514    0.69914    1.000
    Si831    Si       0.14382    0.57383    0.62286    1.000
    N832     N        0.20217    0.58960    0.74312    1.000
    N833     N        0.18235    0.55890    0.63505    1.000
    Si834    Si       0.16427    0.57169    0.73428    1.000
    Si835    Si       0.20517    0.59542    0.62401    1.000
    Si836    Si       0.11792    0.58596    0.67935    1.000
    N837     N        0.12437    0.54662    0.65885    1.000
    N838     N        0.02302    0.55664    0.80154    1.000
    Si839    Si       0.02666    0.56411    0.75724    1.000
    N840     N        0.14577    0.56263    0.77374    1.000
    N841     N        0.19738    0.56152    0.84646    1.000
    Si842    Si       0.14296    0.59576    0.80169    1.000
    Si843    Si       0.23886    0.55019    0.83867    1.000
    N844     N        0.14798    0.60077    0.84564    1.000
    Si845    Si       0.00627    0.57399    0.93756    1.000
    Si846    Si       0.99284    0.55615    0.87936    1.000
    N847     N        0.03544    0.55652    0.96476    1.000
    Si848    Si       0.07009    0.55836    0.88421    1.000
    N849     N        0.09237    0.54579    0.91880    1.000
    N850     N        0.02991    0.57107    0.89826    1.000
    N851     N        0.09647    0.53764    0.98933    1.000
    Si852    Si       0.18299    0.55753    0.92905    1.000
    N853     N        0.15060    0.56577    0.95391    1.000
    N854     N        0.20349    0.58952    0.90783    1.000
    N855     N        0.21019    0.53419    0.95329    1.000
    Si856    Si       0.03408    0.62523    0.03054    1.000
    N857     N        0.04200    0.63216    0.07218    1.000
    Si858    Si       0.04556    0.60283    0.10561    1.000
    N859     N        0.99759    0.60338    0.02504    1.000
    N860     N        0.00203    0.61326    0.12034    1.000
    Si861    Si       0.14986    0.61219    0.03207    1.000
    Si862    Si       0.17704    0.61466    0.09756    1.000
    N863     N        0.20901    0.64194    0.11284    1.000
    N864     N        0.13961    0.63527    0.10841    1.000
    N865     N        0.18206    0.60111    0.05830    1.000
    Si866    Si       0.10580    0.61655    0.12645    1.000
    N867     N        0.06983    0.64084    0.12825    1.000
    Si868    Si       0.06975    0.63001    0.23263    1.000
    Si869    Si       0.01437    0.65184    0.20282    1.000
    N870     N        0.99270    0.61776    0.19045    1.000
    N871     N        0.02059    0.63658    0.24308    1.000
    N872     N        0.05548    0.65402    0.19826    1.000
    N873     N        0.17612    0.63354    0.17753    1.000
    Si874    Si       0.23757    0.64834    0.24167    1.000
    N875     N        0.11103    0.64331    0.23205    1.000
    Si876    Si       0.21380    0.64195    0.15654    1.000
    Si877    Si       0.14301    0.65371    0.20127    1.000
    N878     N        0.20289    0.61949    0.24516    1.000
    N879     N        0.11734    0.60094    0.16631    1.000
    N880     N        0.09506    0.61760    0.35328    1.000
    Si881    Si       0.00889    0.63675    0.28439    1.000
    N882     N        0.07795    0.61345    0.27424    1.000
    N883     N        0.03137    0.64195    0.32263    1.000
    Si884    Si       0.07252    0.65035    0.33496    1.000
    Si885    Si       0.99835    0.65265    0.34884    1.000
    Si886    Si       0.11713    0.63704    0.27655    1.000
    N887     N        0.21309    0.61725    0.31079    1.000
    Si888    Si       0.18022    0.62463    0.28417    1.000
    N889     N        0.14417    0.60558    0.29305    1.000
    N890     N        0.01022    0.64057    0.38936    1.000
    N891     N        0.07328    0.63417    0.42411    1.000
    Si892    Si       0.09999    0.61631    0.39584    1.000
    N893     N        0.10812    0.63002    0.48208    1.000
    Si894    Si       0.10826    0.65420    0.44487    1.000
    N895     N        0.20273    0.64570    0.41429    1.000
    Si896    Si       0.17439    0.61760    0.43263    1.000
    N897     N        0.17723    0.61685    0.47661    1.000
    N898     N        0.13509    0.62838    0.42119    1.000
    N899     N        0.23195    0.65184    0.48397    1.000
    Si900    Si       0.24017    0.64104    0.39219    1.000
    N901     N        0.08036    0.61738    0.58196    1.000
    Si902    Si       0.04868    0.63207    0.55194    1.000
    N903     N        0.01446    0.65055    0.57210    1.000
    Si904    Si       0.17094    0.61415    0.55915    1.000
    N905     N        0.13899    0.63320    0.53636    1.000
    N906     N        0.20901    0.62594    0.54411    1.000
    N907     N        0.17166    0.61044    0.60108    1.000
    Si908    Si       0.21284    0.61620    0.50234    1.000
    Si909    Si       0.15115    0.64355    0.61869    1.000
    Si910    Si       0.08796    0.63063    0.62258    1.000
    N911     N        0.05113    0.62743    0.64429    1.000
    Si912    Si       0.01363    0.62486    0.66378    1.000
    Si913    Si       0.05839    0.62775    0.72188    1.000
    N914     N        0.02355    0.64827    0.69971    1.000
    N915     N        0.20132    0.65304    0.72158    1.000
    N916     N        0.22430    0.60855    0.66324    1.000
    Si917    Si       0.19163    0.62557    0.68688    1.000
    N918     N        0.12044    0.60750    0.64094    1.000
    N919     N        0.17266    0.65102    0.65670    1.000
    N920     N        0.15558    0.59656    0.69751    1.000
    Si921    Si       0.01366    0.63586    0.77741    1.000
    N922     N        0.03682    0.60656    0.75453    1.000
    N923     N        0.10684    0.62636    0.80625    1.000
    Si924    Si       0.10767    0.61829    0.84940    1.000
    Si925    Si       0.07920    0.65445    0.78514    1.000
    N926     N        0.04294    0.65583    0.80663    1.000
    N927     N        0.16337    0.62705    0.77712    1.000
    Si928    Si       0.20279    0.62994    0.75790    1.000
    Si929    Si       0.18516    0.59766    0.86841    1.000
    N930     N        0.07977    0.60082    0.87409    1.000
    N931     N        0.06835    0.63983    0.92837    1.000
    N932     N        0.02599    0.64992    0.87927    1.000
    N933     N        0.10102    0.60516    0.98147    1.000
    N934     N        0.00464    0.61619    0.93016    1.000
    Si935    Si       0.07639    0.64111    0.97070    1.000
    Si936    Si       0.04439    0.61481    0.89764    1.000
    N937     N        0.04047    0.64842    0.99448    1.000
    N938     N        0.13817    0.63567    0.92854    1.000
    N939     N        0.19124    0.64415    0.87752    1.000
    N940     N        0.16839    0.62284    0.99285    1.000
    Si941    Si       0.13912    0.60906    0.96295    1.000
    N942     N        0.20686    0.65574    0.94707    1.000
    N943     N        0.09372    0.68686    0.08701    1.000
    N944     N        0.01787    0.68533    0.10086    1.000
    Si945    Si       0.05733    0.66695    0.09595    1.000
    N946     N        0.99310    0.69932    0.00780    1.000
    N947     N        0.23936    0.68822    0.07961    1.000
    Si948    Si       0.12987    0.68228    0.01068    1.000
    Si949    Si       0.13453    0.67192    0.08390    1.000
    N950     N        0.22513    0.67894    0.00998    1.000
    N951     N        0.16449    0.69855    0.10223    1.000
    Si952    Si       0.20951    0.69328    0.11275    1.000
    N953     N        0.13959    0.65493    0.04397    1.000
    N954     N        0.99472    0.68818    0.19826    1.000
    Si955    Si       0.07689    0.66820    0.16390    1.000
    N956     N        0.06175    0.70524    0.15027    1.000
    N957     N        0.15696    0.69286    0.21506    1.000
    N958     N        0.11882    0.67300    0.17013    1.000
    Si959    Si       0.13286    0.71257    0.18381    1.000
    N960     N        0.22421    0.68475    0.15199    1.000
    N961     N        0.09875    0.66735    0.30411    1.000
    Si962    Si       0.10482    0.71031    0.30567    1.000
    N963     N        0.06596    0.67703    0.37107    1.000
    Si964    Si       0.15557    0.69898    0.25767    1.000
    N965     N        0.15890    0.66099    0.27694    1.000
    N966     N        0.23494    0.67088    0.27870    1.000
    Si967    Si       0.05934    0.70942    0.45929    1.000
    N968     N        0.10099    0.69536    0.45289    1.000
    N969     N        0.03020    0.68615    0.43790    1.000
    Si970    Si       0.04491    0.66140    0.40678    1.000
    N971     N        0.21433    0.71345    0.39843    1.000
    Si972    Si       0.18715    0.68673    0.41692    1.000
    Si973    Si       0.20981    0.68881    0.48938    1.000
    Si974    Si       0.13750    0.70968    0.46929    1.000
    N975     N        0.14546    0.69347    0.39914    1.000
    N976     N        0.17598    0.69257    0.46039    1.000
    N977     N        0.06914    0.66399    0.53255    1.000
    Si978    Si       0.05824    0.70693    0.54028    1.000
    Si979    Si       0.99388    0.68968    0.57067    1.000
    Si980    Si       0.10884    0.65732    0.51749    1.000
    N981     N        0.11180    0.66816    0.62036    1.000
    N982     N        0.20751    0.69442    0.53309    1.000
    N983     N        0.13087    0.69749    0.51190    1.000
    N984     N        0.17208    0.67048    0.58880    1.000
    Si985    Si       0.21355    0.67141    0.56950    1.000
    Si986    Si       0.17499    0.71132    0.60060    1.000
    N987     N        0.21711    0.71384    0.59316    1.000
    Si988    Si       0.10888    0.70432    0.64302    1.000
    Si989    Si       0.01621    0.68561    0.72043    1.000
    Si990    Si       0.08949    0.69632    0.71614    1.000
    N991     N        0.04954    0.71240    0.70860    1.000
    N992     N        0.07780    0.66108    0.74237    1.000
    N993     N        0.11759    0.68996    0.68444    1.000
    Si994    Si       0.21100    0.69535    0.72420    1.000
    Si995    Si       0.15936    0.68778    0.67419    1.000
    N996     N        0.18332    0.71446    0.69747    1.000
    Si997    Si       0.03167    0.67411    0.84583    1.000
    N998     N        0.00180    0.67440    0.75947    1.000
    Si999    Si       0.10036    0.69357    0.84560    1.000
    Si1000   Si       0.00716    0.70448    0.79378    1.000
    N1001    N        0.10668    0.68745    0.80031    1.000
    N1002    N        0.06020    0.70802    0.85633    1.000
    N1003    N        0.99354    0.69189    0.83457    1.000
    N1004    N        0.10863    0.65741    0.86570    1.000
    N1005    N        0.17491    0.67432    0.81919    1.000
    Si1006   Si       0.20892    0.67026    0.84824    1.000
    N1007    N        0.20509    0.71343    0.85575    1.000
    Si1008   Si       0.14142    0.65640    0.79935    1.000
    N1009    N        0.09812    0.70341    0.91779    1.000
    N1010    N        0.01079    0.68938    0.93879    1.000
    Si1011   Si       0.02413    0.68772    0.97898    1.000
    N1012    N        0.10266    0.67385    0.97727    1.000
    Si1013   Si       0.09087    0.71221    0.96020    1.000
    Si1014   Si       0.10352    0.65974    0.91087    1.000
    Si1015   Si       0.00049    0.65669    0.91296    1.000
    N1016    N        0.16832    0.69453    0.99118    1.000
    N1017    N        0.16397    0.69903    0.91988    1.000
    Si1018   Si       0.19360    0.65786    0.98745    1.000
    Si1019   Si       0.17494    0.65605    0.91587    1.000
    Si1020   Si       0.04618    0.74427    0.01481    1.000
    N1021    N        0.02321    0.75722    0.10791    1.000
    N1022    N        0.09335    0.75962    0.08676    1.000
    N1023    N        0.00720    0.76440    0.01544    1.000
    Si1024   Si       0.01154    0.72515    0.07995    1.000
    Si1025   Si       0.08444    0.72281    0.06347    1.000
    N1026    N        0.04352    0.72318    0.05168    1.000
    N1027    N        0.07912    0.77190    0.01364    1.000
    N1028    N        0.11032    0.71693    0.02917    1.000
    Si1029   Si       0.11977    0.75788    0.01181    1.000
    N1030    N        0.21326    0.73999    0.03855    1.000
    N1031    N        0.14949    0.76813    0.04298    1.000
    Si1032   Si       0.23586    0.77138    0.10701    1.000
    N1033    N        0.20972    0.73989    0.11726    1.000
    Si1034   Si       0.20535    0.71799    0.00459    1.000
    Si1035   Si       0.10326    0.75520    0.24320    1.000
    N1036    N        0.03156    0.74644    0.19926    1.000
    N1037    N        0.10227    0.73757    0.20168    1.000
    Si1038   Si       0.06715    0.73989    0.17634    1.000
    N1039    N        0.07218    0.77723    0.15145    1.000
    Si1040   Si       0.16624    0.74011    0.11946    1.000
    Si1041   Si       0.19209    0.76131    0.17991    1.000
    Si1042   Si       0.20766    0.74867    0.24016    1.000
    N1043    N        0.15962    0.73771    0.16186    1.000
    N1044    N        0.22090    0.73662    0.20117    1.000
    Si1045   Si       0.03869    0.74891    0.29837    1.000
    N1046    N        0.06081    0.75660    0.26116    1.000
    N1047    N        0.06724    0.72520    0.32102    1.000
    N1048    N        0.00127    0.73123    0.29002    1.000
    Si1049   Si       0.06312    0.71912    0.36314    1.000
    N1050    N        0.11745    0.72040    0.26574    1.000
    Si1051   Si       0.17918    0.73925    0.31286    1.000
    N1052    N        0.18611    0.72656    0.27191    1.000
    N1053    N        0.14165    0.71997    0.33012    1.000
    N1054    N        0.21704    0.72049    0.32575    1.000
    N1055    N        0.09641    0.74434    0.37786    1.000
    N1056    N        0.02593    0.73356    0.38134    1.000
    N1057    N        0.05299    0.75141    0.44474    1.000
    Si1058   Si       0.03345    0.76665    0.40991    1.000
    Si1059   Si       0.05681    0.76754    0.48713    1.000
    Si1060   Si       0.13536    0.72601    0.37397    1.000
    N1061    N        0.13433    0.75190    0.45501    1.000
    N1062    N        0.20188    0.76404    0.44849    1.000
    Si1063   Si       0.20004    0.75545    0.40462    1.000
    N1064    N        0.16713    0.75885    0.37843    1.000
    N1065    N        0.23574    0.72537    0.48815    1.000
    Si1066   Si       0.16775    0.77096    0.47663    1.000
    Si1067   Si       0.01180    0.74091    0.60469    1.000
    N1068    N        0.09268    0.72901    0.55579    1.000
    Si1069   Si       0.07365    0.76597    0.56814    1.000
    N1070    N        0.05656    0.72241    0.49921    1.000
    N1071    N        0.02642    0.71813    0.56844    1.000
    N1072    N        0.22422    0.76841    0.54370    1.000
    N1073    N        0.15762    0.74456    0.57829    1.000
    Si1074   Si       0.13395    0.72822    0.54129    1.000
    N1075    N        0.16222    0.75622    0.51689    1.000
    Si1076   Si       0.12948    0.76102    0.60804    1.000
    Si1077   Si       0.23376    0.72864    0.53329    1.000
    Si1078   Si       0.18204    0.77123    0.55287    1.000
    N1079    N        0.09491    0.74174    0.62615    1.000
    N1080    N        0.02736    0.74144    0.64523    1.000
    Si1081   Si       0.02174    0.73790    0.68831    1.000
    Si1082   Si       0.05853    0.76923    0.63266    1.000
    N1083    N        0.10938    0.72808    0.73995    1.000
    N1084    N        0.22090    0.74850    0.65485    1.000
    N1085    N        0.15764    0.71706    0.64090    1.000
    Si1086   Si       0.13860    0.76259    0.73202    1.000
    Si1087   Si       0.17841    0.75109    0.66701    1.000
    N1088    N        0.14214    0.76651    0.68999    1.000
    N1089    N        0.10037    0.75578    0.80533    1.000
    Si1090   Si       0.02930    0.76314    0.79525    1.000
    Si1091   Si       0.05700    0.75110    0.86800    1.000
    Si1092   Si       0.08946    0.72146    0.77908    1.000
    N1093    N        0.04661    0.72217    0.78685    1.000
    N1094    N        0.03007    0.77027    0.83825    1.000
    N1095    N        0.09626    0.77058    0.86744    1.000
    Si1096   Si       0.19737    0.75194    0.77818    1.000
    N1097    N        0.16626    0.75146    0.80843    1.000
    Si1098   Si       0.13034    0.76177    0.83676    1.000
    N1099    N        0.13402    0.71961    0.85710    1.000
    N1100    N        0.21530    0.71375    0.76508    1.000
    Si1101   Si       0.16807    0.71490    0.83197    1.000
    N1102    N        0.98766    0.75140    0.95528    1.000
    Si1103   Si       0.00476    0.73079    0.92211    1.000
    N1104    N        0.03533    0.75789    0.90655    1.000
    N1105    N        0.05299    0.72080    0.97840    1.000
    N1106    N        0.12280    0.74019    0.97039    1.000
    Si1107   Si       0.22449    0.76811    0.94231    1.000
    Si1108   Si       0.23762    0.73406    0.87539    1.000
    Si1109   Si       0.13382    0.72585    0.90115    1.000
    N1110    N        0.20244    0.74043    0.96580    1.000
    N1111    N        0.14818    0.76292    0.92006    1.000
    N1112    N        0.21791    0.76953    0.89888    1.000
    Si1113   Si       0.16346    0.72313    0.95700    1.000
    N1114    N        0.06225    0.81844    0.08844    1.000
    Si1115   Si       0.00669    0.80625    0.01842    1.000
    N1116    N        0.99784    0.82029    0.05879    1.000
    Si1117   Si       0.06345    0.77910    0.10947    1.000
    N1118    N        0.22024    0.79729    0.07358    1.000
    N1119    N        0.18980    0.81218    0.01598    1.000
    N1120    N        0.13409    0.82623    0.06485    1.000
    Si1121   Si       0.12926    0.78341    0.07727    1.000
    Si1122   Si       0.14760    0.82546    0.02171    1.000
    N1123    N        0.15438    0.78161    0.11276    1.000
    Si1124   Si       0.19229    0.77907    0.04457    1.000
    N1125    N        0.06620    0.80457    0.21426    1.000
    Si1126   Si       0.08513    0.80840    0.17580    1.000
    Si1127   Si       0.09253    0.82826    0.24148    1.000
    N1128    N        0.99474    0.80862    0.15741    1.000
    Si1129   Si       0.03635    0.77580    0.23077    1.000
    Si1130   Si       0.15353    0.80725    0.21802    1.000
    N1131    N        0.12962    0.80836    0.17730    1.000
    N1132    N        0.19495    0.80228    0.16583    1.000
    Si1133   Si       0.23236    0.82283    0.15969    1.000
    Si1134   Si       0.15766    0.81170    0.14461    1.000
    N1135    N        0.12137    0.79590    0.24512    1.000
    N1136    N        0.17809    0.77380    0.22073    1.000
    Si1137   Si       0.03010    0.81420    0.35294    1.000
    N1138    N        0.02572    0.78753    0.31695    1.000
    Si1139   Si       0.99645    0.80480    0.28878    1.000
    N1140    N        0.11739    0.80805    0.34619    1.000
    N1141    N        0.00213    0.79203    0.24697    1.000
    Si1142   Si       0.15773    0.79368    0.35386    1.000
    Si1143   Si       0.20489    0.81686    0.30670    1.000
    N1144    N        0.22690    0.81396    0.26718    1.000
    N1145    N        0.17929    0.78334    0.31656    1.000
    N1146    N        0.23528    0.82215    0.33540    1.000
    N1147    N        0.99486    0.82869    0.37465    1.000
    N1148    N        0.08520    0.80211    0.47586    1.000
    Si1149   Si       0.09649    0.78738    0.37926    1.000
    N1150    N        0.05398    0.79460    0.38589    1.000
    N1151    N        0.01690    0.78683    0.48845    1.000
    N1152    N        0.99231    0.77782    0.42222    1.000
    N1153    N        0.17750    0.82510    0.37442    1.000
    N1154    N        0.15289    0.81068    0.46886    1.000
    Si1155   Si       0.11642    0.78978    0.44938    1.000
    N1156    N        0.23453    0.78264    0.39549    1.000
    Si1157   Si       0.22115    0.82105    0.37691    1.000
    N1158    N        0.11974    0.80694    0.41001    1.000
    Si1159   Si       0.01360    0.81303    0.59010    1.000
    Si1160   Si       0.01113    0.82098    0.51480    1.000
    Si1161   Si       0.08263    0.82140    0.51508    1.000
    N1162    N        0.06624    0.78278    0.52912    1.000
    N1163    N        0.10579    0.78956    0.58279    1.000
    N1164    N        0.99376    0.80692    0.55276    1.000
    N1165    N        0.04060    0.77671    0.59458    1.000
    N1166    N        0.17309    0.81171    0.56676    1.000
    Si1167   Si       0.12987    0.82429    0.57215    1.000
    N1168    N        0.06632    0.80535    0.65157    1.000
    N1169    N        0.01827    0.77694    0.70693    1.000
    N1170    N        0.17992    0.77219    0.74313    1.000
    Si1171   Si       0.15365    0.81168    0.66564    1.000
    Si1172   Si       0.20600    0.80091    0.72182    1.000
    N1173    N        0.19458    0.80518    0.68073    1.000
    N1174    N        0.15723    0.78329    0.63145    1.000
    Si1175   Si       0.01754    0.81108    0.84814    1.000
    N1176    N        0.05056    0.79555    0.77293    1.000
    Si1177   Si       0.09269    0.79218    0.78448    1.000
    N1178    N        0.10651    0.82149    0.81446    1.000
    Si1179   Si       0.09497    0.81357    0.85787    1.000
    N1180    N        0.11418    0.79865    0.74824    1.000
    Si1181   Si       0.19085    0.79545    0.82673    1.000
    N1182    N        0.15876    0.78688    0.85839    1.000
    N1183    N        0.22066    0.82290    0.85239    1.000
    N1184    N        0.22545    0.77870    0.80025    1.000
    N1185    N        0.17603    0.82510    0.79836    1.000
    N1186    N        0.05297    0.81839    0.87803    1.000
    N1187    N        0.00630    0.81907    0.93028    1.000
    Si1188   Si       0.04540    0.79847    0.92092    1.000
    N1189    N        0.08146    0.79925    0.94749    1.000
    Si1190   Si       0.08089    0.81125    0.99098    1.000
    N1191    N        0.03620    0.82788    0.99460    1.000
    Si1192   Si       0.12207    0.78142    0.95052    1.000
    N1193    N        0.17371    0.82675    0.91160    1.000
    Si1194   Si       0.17617    0.78694    0.89603    1.000
    N1195    N        0.22440    0.80939    0.95062    1.000
    N1196    N        0.12940    0.80164    0.98813    1.000
    Si1197   Si       0.22118    0.82904    0.98886    1.000
    N1198    N        0.05009    0.87035    0.05651    1.000
    Si1199   Si       0.05479    0.86665    0.01307    1.000
    Si1200   Si       0.08979    0.84515    0.06476    1.000
    N1201    N        0.10682    0.87718    0.09022    1.000
    N1202    N        0.09202    0.84124    0.02012    1.000
    Si1203   Si       0.02711    0.84228    0.08084    1.000
    N1204    N        0.01396    0.86367    0.11808    1.000
    N1205    N        0.01408    0.88402    0.00263    1.000
    N1206    N        0.15880    0.86869    0.01720    1.000
    Si1207   Si       0.14590    0.86009    0.08754    1.000
    Si1208   Si       0.19437    0.88337    0.04131    1.000
    N1209    N        0.23402    0.86223    0.04881    1.000
    N1210    N        0.17689    0.89163    0.08116    1.000
    N1211    N        0.06003    0.84256    0.16605    1.000
    N1212    N        0.10616    0.86197    0.21634    1.000
    Si1213   Si       0.07661    0.87663    0.18719    1.000
    Si1214   Si       0.01620    0.84474    0.15644    1.000
    N1215    N        0.98782    0.86125    0.18631    1.000
    N1216    N        0.17444    0.84448    0.22673    1.000
    N1217    N        0.22769    0.85882    0.13823    1.000
    Si1218   Si       0.19405    0.87934    0.12320    1.000
    N1219    N        0.16150    0.85128    0.12761    1.000
    Si1220   Si       0.14612    0.87893    0.22091    1.000
    Si1221   Si       0.04224    0.85892    0.29961    1.000
    Si1222   Si       0.09904    0.84899    0.34540    1.000
    N1223    N        0.05636    0.84538    0.33881    1.000
    N1224    N        0.00002    0.84589    0.29765    1.000
    N1225    N        0.11279    0.87590    0.31431    1.000
    N1226    N        0.06818    0.83909    0.27272    1.000
    N1227    N        0.99455    0.89094    0.34331    1.000
    Si1228   Si       0.15068    0.88335    0.29809    1.000
    N1229    N        0.18124    0.85115    0.29429    1.000
    Si1230   Si       0.20540    0.84964    0.25550    1.000
    N1231    N        0.22804    0.88587    0.26244    1.000
    N1232    N        0.17014    0.86226    0.42972    1.000
    Si1233   Si       0.14568    0.84183    0.39970    1.000
    N1234    N        0.11763    0.87933    0.47673    1.000
    Si1235   Si       0.15257    0.85219    0.46793    1.000
    N1236    N        0.23428    0.85131    0.40194    1.000
    N1237    N        0.11770    0.86740    0.37945    1.000
    Si1238   Si       0.21030    0.87536    0.42895    1.000
    N1239    N        0.23158    0.86995    0.46887    1.000
    N1240    N        0.03239    0.85393    0.59269    1.000
    Si1241   Si       0.04421    0.87744    0.55693    1.000
    N1242    N        0.04792    0.84654    0.52394    1.000
    Si1243   Si       0.09582    0.88531    0.61101    1.000
    N1244    N        0.11585    0.84126    0.53458    1.000
    N1245    N        0.12280    0.85408    0.60098    1.000
    Si1246   Si       0.13480    0.87553    0.51808    1.000
    N1247    N        0.19018    0.87962    0.58529    1.000
    Si1248   Si       0.21855    0.87123    0.51217    1.000
    Si1249   Si       0.15726    0.87705    0.61423    1.000
    Si1250   Si       0.20678    0.83961    0.57288    1.000
    N1251    N        0.17488    0.86670    0.50381    1.000
    N1252    N        0.22929    0.83677    0.53635    1.000
    N1253    N        0.22752    0.82918    0.61088    1.000
    Si1254   Si       0.00521    0.86586    0.62629    1.000
    N1255    N        0.07921    0.87804    0.65007    1.000
    N1256    N        0.01673    0.86421    0.66847    1.000
    Si1257   Si       0.07883    0.83976    0.67066    1.000
    N1258    N        0.06869    0.84075    0.71512    1.000
    Si1259   Si       0.99161    0.85696    0.70466    1.000
    N1260    N        0.99962    0.83463    0.74587    1.000
    Si1261   Si       0.11191    0.83475    0.72484    1.000
    Si1262   Si       0.22415    0.87692    0.71603    1.000
    N1263    N        0.17153    0.85255    0.64568    1.000
    N1264    N        0.21284    0.83988    0.73732    1.000
    N1265    N        0.12201    0.83166    0.68392    1.000
    Si1266   Si       0.21282    0.83694    0.65293    1.000
    N1267    N        0.23923    0.86096    0.67833    1.000
    Si1268   Si       0.03765    0.87820    0.81109    1.000
    N1269    N        0.06798    0.87843    0.84042    1.000
    N1270    N        0.01462    0.84019    0.81594    1.000
    N1271    N        0.05415    0.87402    0.77020    1.000
    Si1272   Si       0.10927    0.88440    0.84649    1.000
    Si1273   Si       0.04432    0.83271    0.75070    1.000
    Si1274   Si       0.20678    0.84819    0.77907    1.000
    Si1275   Si       0.13841    0.84697    0.79444    1.000
    N1276    N        0.14376    0.87983    0.82100    1.000
    N1277    N        0.13333    0.86248    0.75159    1.000
    Si1278   Si       0.23628    0.86042    0.84054    1.000
    N1279    N        0.19060    0.88907    0.77385    1.000
    N1280    N        0.98768    0.88092    0.94382    1.000
    Si1281   Si       0.05747    0.86320    0.88057    1.000
    N1282    N        0.01366    0.87212    0.88268    1.000
    Si1283   Si       0.00318    0.85078    0.97235    1.000
    N1284    N        0.06132    0.88387    0.91956    1.000
    N1285    N        0.11160    0.85024    0.87643    1.000
    Si1286   Si       0.14342    0.85710    0.90629    1.000
    N1287    N        0.20452    0.86657    0.97100    1.000
    Si1288   Si       0.20864    0.84581    0.93083    1.000
    N1289    N        0.23086    0.86746    0.90220    1.000
    Si1290   Si       0.15856    0.87768    0.97609    1.000
    N1291    N        0.12882    0.86575    0.94773    1.000
    N1292    N        0.05838    0.92765    0.10391    1.000
    Si1293   Si       0.03639    0.91098    0.07107    1.000
    N1294    N        0.04464    0.93522    0.03641    1.000
    Si1295   Si       0.09896    0.91057    0.11593    1.000
    Si1296   Si       0.01014    0.92659    0.00600    1.000
    Si1297   Si       0.07112    0.93910    0.00105    1.000
    N1298    N        0.99250    0.90172    0.06917    1.000
    Si1299   Si       0.17288    0.93218    0.09966    1.000
    N1300    N        0.21072    0.91909    0.02243    1.000
    N1301    N        0.13182    0.93968    0.11360    1.000
    N1302    N        0.23979    0.92774    0.08152    1.000
    Si1303   Si       0.00249    0.89827    0.20463    1.000
    N1304    N        0.09999    0.93813    0.22064    1.000
    N1305    N        0.09708    0.90396    0.15925    1.000
    N1306    N        0.04527    0.90065    0.20215    1.000
    Si1307   Si       0.05730    0.94339    0.21145    1.000
    N1308    N        0.99589    0.89979    0.24752    1.000
    Si1309   Si       0.19273    0.92850    0.17822    1.000
    N1310    N        0.15605    0.90817    0.19155    1.000
    N1311    N        0.19362    0.92253    0.13506    1.000
    Si1312   Si       0.11991    0.93217    0.18316    1.000
    N1313    N        0.22479    0.90664    0.19689    1.000
    N1314    N        0.07089    0.91166    0.35282    1.000
    Si1315   Si       0.08788    0.91093    0.31133    1.000
    Si1316   Si       0.02274    0.92584    0.26938    1.000
    Si1317   Si       0.02835    0.91502    0.35769    1.000
    N1318    N        0.05010    0.90179    0.29336    1.000
    N1319    N        0.10553    0.94648    0.29241    1.000
    Si1320   Si       0.21236    0.90661    0.29926    1.000
    N1321    N        0.17567    0.90871    0.32446    1.000
    N1322    N        0.14602    0.90077    0.25848    1.000
    Si1323   Si       0.12776    0.93820    0.25382    1.000
    N1324    N        0.20929    0.94628    0.28336    1.000
    Si1325   Si       0.16806    0.94786    0.34324    1.000
    N1326    N        0.13264    0.94024    0.36901    1.000
    N1327    N        0.08957    0.91657    0.41999    1.000
    N1328    N        0.05236    0.91727    0.46955    1.000
    Si1329   Si       0.10442    0.90962    0.38103    1.000
    N1330    N        0.02133    0.90026    0.39788    1.000
    Si1331   Si       0.09752    0.91530    0.46424    1.000
    Si1332   Si       0.04726    0.92238    0.42534    1.000
    N1333    N        0.21370    0.91500    0.40988    1.000
    Si1334   Si       0.23134    0.92859    0.37150    1.000
    N1335    N        0.21902    0.94607    0.47852    1.000
    Si1336   Si       0.20801    0.95101    0.43792    1.000
    N1337    N        0.07213    0.90299    0.57952    1.000
    N1338    N        0.01561    0.90026    0.52945    1.000
    Si1339   Si       0.02980    0.93146    0.50316    1.000
    Si1340   Si       0.07467    0.94436    0.56841    1.000
    N1341    N        0.06156    0.95072    0.52695    1.000
    Si1342   Si       0.14147    0.93369    0.57405    1.000
    Si1343   Si       0.21195    0.91716    0.57557    1.000
    N1344    N        0.13531    0.90900    0.54127    1.000
    N1345    N        0.22636    0.90769    0.53406    1.000
    N1346    N        0.13146    0.91466    0.61391    1.000
    N1347    N        0.18275    0.94970    0.57676    1.000
    Si1348   Si       0.04938    0.89754    0.67936    1.000
    N1349    N        0.03315    0.93241    0.65913    1.000
    N1350    N        0.07962    0.91029    0.70881    1.000
    N1351    N        0.01906    0.89992    0.71836    1.000
    Si1352   Si       0.05381    0.90845    0.74293    1.000
    Si1353   Si       0.11071    0.94079    0.71253    1.000
    N1354    N        0.18955    0.90021    0.70734    1.000
    Si1355   Si       0.16032    0.89555    0.74114    1.000
    Si1356   Si       0.18227    0.93876    0.68491    1.000
    N1357    N        0.13865    0.93785    0.67848    1.000
    N1358    N        0.14018    0.93334    0.74477    1.000
    N1359    N        0.01144    0.91150    0.80431    1.000
    N1360    N        0.05445    0.94798    0.76057    1.000
    N1361    N        0.11163    0.92407    0.86458    1.000
    Si1362   Si       0.18016    0.90235    0.81321    1.000
    N1363    N        0.16985    0.94334    0.80404    1.000
    N1364    N        0.20784    0.89282    0.84530    1.000
    Si1365   Si       0.09392    0.89292    0.94773    1.000
    N1366    N        0.02208    0.93956    0.91318    1.000
    Si1367   Si       0.02033    0.89826    0.91898    1.000
    N1368    N        0.07650    0.89729    0.98758    1.000
    Si1369   Si       0.14130    0.93005    0.89425    1.000
    N1370    N        0.16475    0.89372    0.89707    1.000
    Si1371   Si       0.13699    0.94866    0.96189    1.000
    N1372    N        0.11648    0.92849    0.93116    1.000
    N1373    N        0.16846    0.91915    0.96990    1.000
    Si1374   Si       0.21060    0.91120    0.97858    1.000
    N1375    N        0.22403    0.93769    0.90564    1.000
    Si1376   Si       0.20713    0.90209    0.88717    1.000
    Si1377   Si       0.10891    0.99212    0.01898    1.000
    N1378    N        0.99001    0.00628    0.01296    1.000
    N1379    N        0.11406    0.99230    0.06127    1.000
    N1380    N        0.03789    0.00272    0.07099    1.000
    N1381    N        0.10969    0.95727    0.99536    1.000
    N1382    N        0.18495    0.96678    0.07448    1.000
    Si1383   Si       0.15558    0.00108    0.07569    1.000
    Si1384   Si       0.21876    0.95023    0.05120    1.000
    N1385    N        0.08223    0.98676    0.12097    1.000
    N1386    N        0.00766    0.97056    0.12601    1.000
    N1387    N        0.05355    0.95997    0.17418    1.000
    Si1388   Si       0.04986    0.96174    0.13161    1.000
    Si1389   Si       0.22893    0.99639    0.17019    1.000
    Si1390   Si       0.12291    0.97827    0.13142    1.000
    N1391    N        0.13376    0.96969    0.17170    1.000
    Si1392   Si       0.16050    0.98736    0.20113    1.000
    N1393    N        0.15487    0.97253    0.24201    1.000
    N1394    N        0.19786    0.97197    0.18551    1.000
    N1395    N        0.08966    0.98942    0.34519    1.000
    Si1396   Si       0.03951    0.99686    0.26734    1.000
    N1397    N        0.01433    0.95525    0.35255    1.000
    Si1398   Si       0.11462    0.98684    0.30820    1.000
    N1399    N        0.04020    0.95861    0.24758    1.000
    Si1400   Si       0.99343    0.97493    0.32030    1.000
    Si1401   Si       0.18131    0.97704    0.27602    1.000
    N1402    N        0.15719    0.97474    0.31153    1.000
    N1403    N        0.20512    0.96135    0.36346    1.000
    N1404    N        0.21300    0.00983    0.27623    1.000
    Si1405   Si       0.01316    0.00271    0.48110    1.000
    N1406    N        0.05583    0.99463    0.47305    1.000
    Si1407   Si       0.00430    0.97149    0.39141    1.000
    Si1408   Si       0.06245    0.99937    0.43094    1.000
    N1409    N        0.03891    0.96515    0.41467    1.000
    N1410    N        0.10376    0.99448    0.41773    1.000
    N1411    N        0.11380    0.95414    0.47575    1.000
    Si1412   Si       0.13317    0.98271    0.44896    1.000
    N1413    N        0.22894    0.98504    0.41957    1.000
    N1414    N        0.16905    0.97019    0.43003    1.000
    Si1415   Si       0.11692    0.97896    0.37818    1.000
    N1416    N        0.15603    0.00045    0.37108    1.000
    Si1417   Si       0.19046    0.99231    0.39575    1.000
    Si1418   Si       0.00151    0.97011    0.57889    1.000
    N1419    N        0.04354    0.96354    0.59070    1.000
    N1420    N        0.11227    0.96548    0.57185    1.000
    Si1421   Si       0.08501    0.97513    0.50061    1.000
    N1422    N        0.99917    0.96214    0.49688    1.000
    N1423    N        0.16119    0.00499    0.53712    1.000
    Si1424   Si       0.12114    0.00604    0.55644    1.000
    N1425    N        0.22739    0.97710    0.53525    1.000
    Si1426   Si       0.19234    0.98626    0.55834    1.000
    N1427    N        0.03952    0.00333    0.66341    1.000
    N1428    N        0.09288    0.98124    0.71524    1.000
    Si1429   Si       0.04234    0.96917    0.63653    1.000
    Si1430   Si       0.08116    0.99250    0.67505    1.000
    N1431    N        0.08586    0.96294    0.64519    1.000
    N1432    N        0.03150    0.00712    0.73408    1.000
    Si1433   Si       0.22289    0.98973    0.72832    1.000
    Si1434   Si       0.12628    0.95228    0.63875    1.000
    N1435    N        0.20350    0.95302    0.64890    1.000
    Si1436   Si       0.19175    0.99261    0.63211    1.000
    N1437    N        0.18496    0.97273    0.71390    1.000
    N1438    N        0.14777    0.98886    0.63200    1.000
    N1439    N        0.00778    0.98267    0.79578    1.000
    Si1440   Si       0.09724    0.96183    0.85013    1.000
    Si1441   Si       0.04245    0.99106    0.85162    1.000
    N1442    N        0.00308    0.97716    0.86335    1.000
    N1443    N        0.05931    0.95775    0.82989    1.000
    Si1444   Si       0.06902    0.98960    0.74987    1.000
    Si1445   Si       0.03293    0.94816    0.79814    1.000
    N1446    N        0.12500    0.98325    0.82443    1.000
    Si1447   Si       0.16658    0.97363    0.83365    1.000
    N1448    N        0.20209    0.99539    0.82264    1.000
    Si1449   Si       0.17371    0.96235    0.76093    1.000
    N1450    N        0.21792    0.96844    0.76752    1.000
    N1451    N        0.15364    0.00101    0.76405    1.000
    Si1452   Si       0.98544    0.96332    0.90056    1.000
    Si1453   Si       0.03528    0.97030    0.94013    1.000
    N1454    N        0.99808    0.99296    0.93434    1.000
    N1455    N        0.07684    0.98894    0.87837    1.000
    N1456    N        0.06623    0.99941    0.94386    1.000
    N1457    N        0.03393    0.94846    0.97717    1.000
    Si1458   Si       0.19307    0.97020    0.91022    1.000
    N1459    N        0.16469    0.96195    0.87751    1.000
    N1460    N        0.16523    0.97785    0.94351    1.000
    N1461    N        0.22208    0.00327    0.90931    1.000
    N1462    N        0.28471    0.04535    0.02624    1.000
    N1463    N        0.34431    0.05764    0.06149    1.000
    Si1464   Si       0.26939    0.00898    0.04402    1.000
    Si1465   Si       0.24435    0.02520    0.11459    1.000
    Si1466   Si       0.36440    0.05963    0.09987    1.000
    Si1467   Si       0.47136    0.02298    0.04985    1.000
    N1468    N        0.42446    0.02961    0.04126    1.000
    N1469    N        0.46532    0.05652    0.08207    1.000
    N1470    N        0.39459    0.02982    0.11900    1.000
    N1471    N        0.32035    0.01300    0.11787    1.000
    N1472    N        0.30862    0.04842    0.18458    1.000
    Si1473   Si       0.27228    0.04498    0.21100    1.000
    Si1474   Si       0.31140    0.04967    0.14141    1.000
    N1475    N        0.26863    0.05701    0.13198    1.000
    N1476    N        0.36013    0.04548    0.23714    1.000
    Si1477   Si       0.32741    0.06628    0.21894    1.000
    N1478    N        0.29232    0.06000    0.24550    1.000
    N1479    N        0.40936    0.03236    0.18838    1.000
    Si1480   Si       0.48855    0.05778    0.11930    1.000
    N1481    N        0.48258    0.02744    0.21409    1.000
    Si1482   Si       0.42164    0.04399    0.14913    1.000
    N1483    N        0.46329    0.03000    0.14500    1.000
    Si1484   Si       0.40402    0.04616    0.22879    1.000
    N1485    N        0.31433    0.03676    0.31558    1.000
    Si1486   Si       0.27536    0.02206    0.32977    1.000
    N1487    N        0.25336    0.05375    0.30639    1.000
    Si1488   Si       0.34373    0.00848    0.32792    1.000
    N1489    N        0.26521    0.02021    0.37192    1.000
    Si1490   Si       0.29444    0.06720    0.28877    1.000
    N1491    N        0.36651    0.03272    0.35716    1.000
    Si1492   Si       0.46956    0.03405    0.25404    1.000
    N1493    N        0.42715    0.02969    0.26351    1.000
    Si1494   Si       0.40866    0.03764    0.36279    1.000
    N1495    N        0.25639    0.05074    0.43819    1.000
    Si1496   Si       0.26704    0.05642    0.39598    1.000
    Si1497   Si       0.28895    0.04473    0.47311    1.000
    N1498    N        0.32776    0.03958    0.45886    1.000
    N1499    N        0.45946    0.06645    0.48374    1.000
    N1500    N        0.48703    0.06714    0.40505    1.000
    N1501    N        0.39944    0.03363    0.46015    1.000
    Si1502   Si       0.36473    0.05932    0.45187    1.000
    Si1503   Si       0.47232    0.02875    0.39144    1.000
    N1504    N        0.43013    0.02209    0.39747    1.000
    Si1505   Si       0.43223    0.03362    0.48922    1.000
    N1506    N        0.25294    0.05476    0.61222    1.000
    N1507    N        0.37345    0.03277    0.58046    1.000
    N1508    N        0.41188    0.03081    0.52683    1.000
    Si1509   Si       0.39397    0.05956    0.55397    1.000
    N1510    N        0.47332    0.03751    0.62128    1.000
    Si1511   Si       0.44231    0.00737    0.62030    1.000
    Si1512   Si       0.25458    0.02305    0.64410    1.000
    N1513    N        0.27739    0.03098    0.67786    1.000
    Si1514   Si       0.35119    0.03749    0.72915    1.000
    N1515    N        0.31920    0.00548    0.73884    1.000
    Si1516   Si       0.37352    0.03286    0.62442    1.000
    N1517    N        0.37144    0.00832    0.70110    1.000
    N1518    N        0.43212    0.04859    0.70829    1.000
    N1519    N        0.40884    0.01534    0.64606    1.000
    Si1520   Si       0.41287    0.01551    0.68876    1.000
    N1521    N        0.32411    0.05784    0.78393    1.000
    N1522    N        0.26324    0.01825    0.78164    1.000
    Si1523   Si       0.30736    0.01721    0.77881    1.000
    Si1524   Si       0.23912    0.05096    0.76545    1.000
    N1525    N        0.38582    0.05039    0.83296    1.000
    N1526    N        0.44524    0.02123    0.80088    1.000
    N1527    N        0.38254    0.04938    0.76041    1.000
    Si1528   Si       0.40906    0.01527    0.82258    1.000
    Si1529   Si       0.46305    0.06228    0.80141    1.000
    Si1530   Si       0.24979    0.01614    0.87444    1.000
    Si1531   Si       0.32847    0.02104    0.90181    1.000
    N1532    N        0.26140    0.02546    0.96331    1.000
    N1533    N        0.28728    0.03047    0.89323    1.000
    N1534    N        0.33238    0.01904    0.94609    1.000
    Si1535   Si       0.35648    0.03917    0.97571    1.000
    N1536    N        0.34432    0.05876    0.88985    1.000
    Si1537   Si       0.26058    0.05884    0.99128    1.000
    Si1538   Si       0.48836    0.06439    0.87687    1.000
    N1539    N        0.40114    0.03109    0.90957    1.000
    Si1540   Si       0.41804    0.03537    0.94755    1.000
    Si1541   Si       0.49139    0.01819    0.93233    1.000
    N1542    N        0.46001    0.04696    0.94864    1.000
    N1543    N        0.48565    0.02453    0.88849    1.000
    N1544    N        0.39391    0.06221    0.96962    1.000
    Si1545   Si       0.38495    0.05851    0.87776    1.000
    N1546    N        0.31068    0.11311    0.03518    1.000
    Si1547   Si       0.31831    0.07191    0.02852    1.000
    N1548    N        0.45018    0.09280    0.02674    1.000
    N1549    N        0.39880    0.08642    0.08473    1.000
    Si1550   Si       0.40678    0.11388    0.11664    1.000
    Si1551   Si       0.44160    0.12674    0.00228    1.000
    Si1552   Si       0.42874    0.06949    0.05932    1.000
    N1553    N        0.34228    0.07834    0.13170    1.000
    N1554    N        0.34211    0.10706    0.21757    1.000
    Si1555   Si       0.33638    0.12435    0.13497    1.000
    N1556    N        0.24239    0.07559    0.19802    1.000
    Si1557   Si       0.45767    0.11173    0.15317    1.000
    N1558    N        0.41264    0.08841    0.22725    1.000
    N1559    N        0.42199    0.08658    0.14890    1.000
    Si1560   Si       0.37882    0.11396    0.23616    1.000
    N1561    N        0.30491    0.10644    0.29579    1.000
    N1562    N        0.35878    0.09859    0.34038    1.000
    Si1563   Si       0.34303    0.12247    0.30832    1.000
    Si1564   Si       0.34527    0.06845    0.37153    1.000
    N1565    N        0.47293    0.12818    0.36875    1.000
    Si1566   Si       0.39550    0.11355    0.35515    1.000
    N1567    N        0.42384    0.07871    0.36251    1.000
    N1568    N        0.37585    0.12256    0.27861    1.000
    N1569    N        0.48591    0.07167    0.26959    1.000
    Si1570   Si       0.48762    0.11461    0.26980    1.000
    N1571    N        0.24465    0.08998    0.37922    1.000
    N1572    N        0.27037    0.07761    0.49331    1.000
    Si1573   Si       0.27950    0.11524    0.39260    1.000
    Si1574   Si       0.25046    0.09187    0.45497    1.000
    N1575    N        0.27912    0.11623    0.43526    1.000
    N1576    N        0.30426    0.07726    0.38287    1.000
    N1577    N        0.43286    0.10335    0.43060    1.000
    N1578    N        0.36829    0.07194    0.40899    1.000
    N1579    N        0.37281    0.10135    0.46544    1.000
    Si1580   Si       0.38871    0.10841    0.42321    1.000
    Si1581   Si       0.45498    0.09420    0.39165    1.000
    Si1582   Si       0.44826    0.10478    0.46939    1.000
    Si1583   Si       0.28167    0.08649    0.60463    1.000
    N1584    N        0.29734    0.08279    0.56555    1.000
    Si1585   Si       0.33169    0.10684    0.55492    1.000
    Si1586   Si       0.26466    0.07947    0.53639    1.000
    N1587    N        0.24346    0.11622    0.54574    1.000
    N1588    N        0.26205    0.12297    0.61766    1.000
    N1589    N        0.34630    0.12538    0.59298    1.000
    N1590    N        0.36805    0.09061    0.53653    1.000
    Si1591   Si       0.47010    0.08970    0.56537    1.000
    N1592    N        0.42965    0.07795    0.57658    1.000
    Si1593   Si       0.41656    0.09771    0.61441    1.000
    Si1594   Si       0.38018    0.11677    0.50446    1.000
    N1595    N        0.42307    0.12276    0.50143    1.000
    Si1596   Si       0.29967    0.06957    0.67640    1.000
    Si1597   Si       0.27031    0.11872    0.72651    1.000
    Si1598   Si       0.34641    0.10396    0.63200    1.000
    N1599    N        0.31292    0.07810    0.63682    1.000
    Si1600   Si       0.34693    0.10744    0.70991    1.000
    N1601    N        0.27269    0.10178    0.68677    1.000
    Si1602   Si       0.24352    0.11449    0.65746    1.000
    N1603    N        0.33141    0.06699    0.70488    1.000
    N1604    N        0.31472    0.12394    0.73680    1.000
    N1605    N        0.35060    0.12530    0.67167    1.000
    N1606    N        0.38052    0.07566    0.62894    1.000
    Si1607   Si       0.41379    0.07311    0.74059    1.000
    Si1608   Si       0.47108    0.06816    0.70378    1.000
    N1609    N        0.45831    0.11051    0.71157    1.000
    Si1610   Si       0.47875    0.07745    0.63537    1.000
    N1611    N        0.38595    0.10804    0.73182    1.000
    N1612    N        0.44153    0.09649    0.64945    1.000
    Si1613   Si       0.30286    0.09473    0.77100    1.000
    N1614    N        0.26447    0.08417    0.75328    1.000
    N1615    N        0.27090    0.09389    0.86216    1.000
    N1616    N        0.33839    0.11832    0.86581    1.000
    N1617    N        0.30076    0.12019    0.80546    1.000
    Si1618   Si       0.26760    0.12828    0.83591    1.000
    N1619    N        0.36903    0.11207    0.80051    1.000
    N1620    N        0.44512    0.08484    0.76985    1.000
    N1621    N        0.46025    0.07565    0.84284    1.000
    Si1622   Si       0.46163    0.12344    0.75392    1.000
    Si1623   Si       0.44340    0.10696    0.87210    1.000
    Si1624   Si       0.36546    0.06850    0.79743    1.000
    Si1625   Si       0.24852    0.11341    0.94431    1.000
    N1626    N        0.27169    0.10038    0.98012    1.000
    Si1627   Si       0.32462    0.10642    0.95576    1.000
    N1628    N        0.29860    0.10689    0.91998    1.000
    Si1629   Si       0.31027    0.08525    0.88195    1.000
    N1630    N        0.33250    0.07508    0.98624    1.000
    N1631    N        0.36470    0.11639    0.93708    1.000
    N1632    N        0.47181    0.09478    0.90286    1.000
    N1633    N        0.40224    0.09877    0.88227    1.000
    Si1634   Si       0.47058    0.08921    0.94693    1.000
    N1635    N        0.43822    0.11242    0.96152    1.000
    Si1636   Si       0.39550    0.10428    0.96697    1.000
    N1637    N        0.25956    0.16229    0.01447    1.000
    Si1638   Si       0.26513    0.17668    0.05563    1.000
    Si1639   Si       0.32750    0.14125    0.06414    1.000
    N1640    N        0.24988    0.14244    0.07789    1.000
    N1641    N        0.36238    0.16656    0.04882    1.000
    Si1642   Si       0.28823    0.13204    0.00366    1.000
    N1643    N        0.30637    0.18099    0.06193    1.000
    N1644    N        0.30700    0.12949    0.10326    1.000
    Si1645   Si       0.26574    0.13790    0.11962    1.000
    N1646    N        0.47030    0.15713    0.01259    1.000
    Si1647   Si       0.38562    0.16741    0.01298    1.000
    Si1648   Si       0.45594    0.17815    0.11039    1.000
    Si1649   Si       0.38348    0.18541    0.11937    1.000
    N1650    N        0.39654    0.12748    0.00391    1.000
    N1651    N        0.48825    0.17509    0.08027    1.000
    N1652    N        0.44330    0.13841    0.12285    1.000
    N1653    N        0.28572    0.14643    0.23222    1.000
    Si1654   Si       0.31884    0.14103    0.20586    1.000
    Si1655   Si       0.25744    0.17393    0.21485    1.000
    N1656    N        0.24466    0.17424    0.13814    1.000
    N1657    N        0.30954    0.13672    0.16421    1.000
    N1658    N        0.33756    0.17941    0.20969    1.000
    N1659    N        0.39823    0.14972    0.21999    1.000
    N1660    N        0.37404    0.14145    0.12098    1.000
    N1661    N        0.46054    0.13222    0.19203    1.000
    Si1662   Si       0.37938    0.18244    0.20177    1.000
    Si1663   Si       0.43582    0.12775    0.22483    1.000
    N1664    N        0.34198    0.16465    0.31813    1.000
    N1665    N        0.27796    0.16975    0.29425    1.000
    Si1666   Si       0.30143    0.17115    0.33130    1.000
    Si1667   Si       0.27611    0.13240    0.27301    1.000
    N1668    N        0.29094    0.14495    0.36294    1.000
    Si1669   Si       0.41274    0.14510    0.28805    1.000
    N1670    N        0.41975    0.13829    0.33081    1.000
    Si1671   Si       0.44968    0.16343    0.35055    1.000
    N1672    N        0.44738    0.13399    0.26530    1.000
    N1673    N        0.31953    0.16951    0.45777    1.000
    Si1674   Si       0.27860    0.15335    0.45612    1.000
    N1675    N        0.24554    0.16943    0.43540    1.000
    N1676    N        0.26556    0.16605    0.49562    1.000
    N1677    N        0.43298    0.18330    0.38709    1.000
    N1678    N        0.47669    0.13933    0.47582    1.000
    Si1679   Si       0.38883    0.18215    0.38551    1.000
    N1680    N        0.38588    0.13834    0.38955    1.000
    Si1681   Si       0.27121    0.14535    0.53191    1.000
    Si1682   Si       0.25371    0.16039    0.60080    1.000
    N1683    N        0.27327    0.17421    0.56389    1.000
    N1684    N        0.31241    0.13151    0.52546    1.000
    Si1685   Si       0.32781    0.16550    0.50288    1.000
    N1686    N        0.37086    0.15995    0.50988    1.000
    Si1687   Si       0.37495    0.15792    0.59428    1.000
    N1688    N        0.41543    0.14078    0.60458    1.000
    Si1689   Si       0.45310    0.14960    0.51340    1.000
    N1690    N        0.47353    0.12698    0.54395    1.000
    Si1691   Si       0.33140    0.16493    0.73695    1.000
    N1692    N        0.36748    0.18102    0.63034    1.000
    Si1693   Si       0.43060    0.16926    0.63304    1.000
    Si1694   Si       0.44589    0.13114    0.67757    1.000
    N1695    N        0.41151    0.15818    0.67113    1.000
    N1696    N        0.47173    0.15723    0.64993    1.000
    Si1697   Si       0.36709    0.16572    0.67014    1.000
    N1698    N        0.33457    0.17764    0.82918    1.000
    N1699    N        0.27944    0.15897    0.86237    1.000
    Si1700   Si       0.33808    0.13220    0.82472    1.000
    N1701    N        0.36439    0.16705    0.76581    1.000
    N1702    N        0.25023    0.15137    0.74921    1.000
    Si1703   Si       0.42483    0.17858    0.86242    1.000
    N1704    N        0.43142    0.15027    0.76892    1.000
    Si1705   Si       0.39030    0.13338    0.76809    1.000
    N1706    N        0.45373    0.14812    0.86568    1.000
    Si1707   Si       0.33495    0.17924    0.95401    1.000
    Si1708   Si       0.29422    0.14684    0.90140    1.000
    N1709    N        0.31737    0.14741    0.97481    1.000
    N1710    N        0.25809    0.15581    0.92811    1.000
    N1711    N        0.32872    0.17389    0.91021    1.000
    N1712    N        0.38566    0.16628    0.87633    1.000
    Si1713   Si       0.37204    0.12783    0.89389    1.000
    N1714    N        0.37287    0.18436    0.97415    1.000
    Si1715   Si       0.34225    0.20679    0.05934    1.000
    N1716    N        0.34622    0.20585    0.10542    1.000
    N1717    N        0.32822    0.22900    0.02433    1.000
    N1718    N        0.24573    0.21525    0.06225    1.000
    Si1719   Si       0.41744    0.21764    0.05964    1.000
    N1720    N        0.41760    0.19578    0.02186    1.000
    N1721    N        0.37886    0.23779    0.06231    1.000
    N1722    N        0.41783    0.19128    0.09495    1.000
    Si1723   Si       0.45885    0.19723    0.00129    1.000
    N1724    N        0.28174    0.23251    0.12470    1.000
    Si1725   Si       0.32386    0.23826    0.12687    1.000
    Si1726   Si       0.31864    0.22091    0.20266    1.000
    N1727    N        0.27875    0.20481    0.19223    1.000
    Si1728   Si       0.25603    0.21208    0.15505    1.000
    N1729    N        0.33817    0.23620    0.16716    1.000
    Si1730   Si       0.38340    0.23793    0.16803    1.000
    N1731    N        0.39053    0.19707    0.16205    1.000
    N1732    N        0.38365    0.22228    0.22094    1.000
    N1733    N        0.46783    0.21210    0.13476    1.000
    N1734    N        0.30811    0.21476    0.33986    1.000
    N1735    N        0.35016    0.23079    0.29077    1.000
    Si1736   Si       0.25064    0.20368    0.28482    1.000
    N1737    N        0.27720    0.23716    0.28152    1.000
    Si1738   Si       0.31192    0.24247    0.30694    1.000
    Si1739   Si       0.36870    0.19837    0.31197    1.000
    N1740    N        0.38433    0.21029    0.35133    1.000
    Si1741   Si       0.43967    0.21500    0.29013    1.000
    N1742    N        0.44905    0.23531    0.24971    1.000
    N1743    N        0.46354    0.19181    0.31989    1.000
    N1744    N        0.40353    0.18941    0.28737    1.000
    Si1745   Si       0.29821    0.23939    0.37373    1.000
    N1746    N        0.29410    0.21514    0.40813    1.000
    Si1747   Si       0.32879    0.20273    0.43224    1.000
    Si1748   Si       0.25157    0.20914    0.42120    1.000
    N1749    N        0.33919    0.23809    0.45529    1.000
    N1750    N        0.24760    0.23364    0.45774    1.000
    N1751    N        0.37220    0.20225    0.41997    1.000
    Si1752   Si       0.38637    0.23000    0.45250    1.000
    N1753    N        0.43107    0.22427    0.44845    1.000
    Si1754   Si       0.44722    0.22105    0.40615    1.000
    Si1755   Si       0.44666    0.22251    0.48846    1.000
    Si1756   Si       0.28283    0.21267    0.54680    1.000
    N1757    N        0.31815    0.20442    0.52168    1.000
    N1758    N        0.24720    0.22835    0.52511    1.000
    Si1759   Si       0.28571    0.22725    0.61881    1.000
    N1760    N        0.29673    0.24063    0.57795    1.000
    Si1761   Si       0.33724    0.23748    0.49954    1.000
    Si1762   Si       0.39431    0.19360    0.52578    1.000
    Si1763   Si       0.38390    0.21310    0.60714    1.000
    N1764    N        0.38320    0.19294    0.56822    1.000
    N1765    N        0.38339    0.22891    0.50074    1.000
    N1766    N        0.43638    0.18920    0.51610    1.000
    N1767    N        0.48812    0.23373    0.55573    1.000
    N1768    N        0.42533    0.20941    0.62027    1.000
    Si1769   Si       0.26796    0.18961    0.73967    1.000
    N1770    N        0.31635    0.22976    0.64901    1.000
    Si1771   Si       0.31437    0.21479    0.69139    1.000
    N1772    N        0.26077    0.19351    0.62812    1.000
    N1773    N        0.27709    0.18872    0.69657    1.000
    Si1774   Si       0.24451    0.18738    0.66722    1.000
    N1775    N        0.34513    0.18412    0.70205    1.000
    Si1776   Si       0.48872    0.19291    0.66897    1.000
    Si1777   Si       0.44284    0.23450    0.71855    1.000
    N1778    N        0.46667    0.19761    0.70676    1.000
    N1779    N        0.48766    0.22444    0.63838    1.000
    Si1780   Si       0.44705    0.24041    0.64004    1.000
    N1781    N        0.25853    0.21139    0.82803    1.000
    Si1782   Si       0.34123    0.19537    0.78931    1.000
    Si1783   Si       0.29462    0.19467    0.84279    1.000
    N1784    N        0.30629    0.18913    0.76215    1.000
    N1785    N        0.36249    0.23275    0.79619    1.000
    N1786    N        0.24618    0.22568    0.74564    1.000
    Si1787   Si       0.43365    0.19268    0.78015    1.000
    Si1788   Si       0.39550    0.23302    0.82570    1.000
    N1789    N        0.41799    0.19565    0.82255    1.000
    N1790    N        0.47578    0.19870    0.77492    1.000
    N1791    N        0.37622    0.23315    0.86541    1.000
    N1792    N        0.41496    0.22098    0.75204    1.000
    N1793    N        0.31276    0.22230    0.87013    1.000
    Si1794   Si       0.35001    0.19341    0.87222    1.000
    N1795    N        0.31224    0.21859    0.95370    1.000
    N1796    N        0.25698    0.22947    0.91436    1.000
    Si1797   Si       0.30044    0.23098    0.91339    1.000
    Si1798   Si       0.30556    0.24074    0.98955    1.000
    N1799    N        0.44596    0.21080    0.96222    1.000
    N1800    N        0.38752    0.23635    0.93320    1.000
    Si1801   Si       0.40809    0.24182    0.89471    1.000
    Si1802   Si       0.46706    0.21154    0.92437    1.000
    N1803    N        0.43721    0.20758    0.89112    1.000
    Si1804   Si       0.40287    0.21638    0.97057    1.000
    N1805    N        0.27227    0.27785    0.06563    1.000
    N1806    N        0.33046    0.27637    0.10621    1.000
    N1807    N        0.34946    0.29115    0.04986    1.000
    Si1808   Si       0.25778    0.28909    0.02462    1.000
    N1809    N        0.26484    0.25145    0.00235    1.000
    Si1810   Si       0.31278    0.29355    0.07264    1.000
    Si1811   Si       0.35868    0.25872    0.02187    1.000
    Si1812   Si       0.25687    0.24577    0.09129    1.000
    Si1813   Si       0.37336    0.27188    0.09003    1.000
    N1814    N        0.46987    0.28108    0.01509    1.000
    Si1815   Si       0.44017    0.29165    0.04998    1.000
    N1816    N        0.44727    0.25015    0.06791    1.000
    Si1817   Si       0.47184    0.24549    0.10598    1.000
    N1818    N        0.32407    0.25649    0.23016    1.000
    Si1819   Si       0.32602    0.30115    0.22357    1.000
    N1820    N        0.39140    0.25914    0.12855    1.000
    Si1821   Si       0.41523    0.25076    0.22853    1.000
    N1822    N        0.48459    0.25919    0.19578    1.000
    Si1823   Si       0.48074    0.26594    0.23970    1.000
    Si1824   Si       0.42497    0.28240    0.14611    1.000
    N1825    N        0.46637    0.27749    0.13475    1.000
    N1826    N        0.41518    0.26412    0.18607    1.000
    N1827    N        0.31103    0.28229    0.32624    1.000
    Si1828   Si       0.27062    0.27265    0.25766    1.000
    Si1829   Si       0.34142    0.29484    0.35654    1.000
    N1830    N        0.25879    0.25466    0.36501    1.000
    N1831    N        0.25135    0.29591    0.29167    1.000
    Si1832   Si       0.35942    0.24143    0.25039    1.000
    Si1833   Si       0.40144    0.28597    0.29737    1.000
    N1834    N        0.37866    0.28347    0.33599    1.000
    N1835    N        0.38937    0.27610    0.25486    1.000
    N1836    N        0.42520    0.24911    0.31266    1.000
    Si1837   Si       0.40461    0.24900    0.35038    1.000
    Si1838   Si       0.34459    0.27031    0.42674    1.000
    N1839    N        0.33310    0.26287    0.38597    1.000
    Si1840   Si       0.30650    0.30296    0.48332    1.000
    N1841    N        0.26437    0.30269    0.47162    1.000
    N1842    N        0.42713    0.25423    0.38695    1.000
    Si1843   Si       0.42190    0.28661    0.41567    1.000
    Si1844   Si       0.46179    0.29881    0.48591    1.000
    N1845    N        0.38686    0.27869    0.43990    1.000
    Si1846   Si       0.30244    0.27637    0.55252    1.000
    N1847    N        0.31496    0.27059    0.51192    1.000
    N1848    N        0.26235    0.29412    0.54709    1.000
    Si1849   Si       0.40145    0.28276    0.59810    1.000
    N1850    N        0.41284    0.26838    0.55922    1.000
    Si1851   Si       0.39978    0.26904    0.51752    1.000
    N1852    N        0.44323    0.26345    0.50622    1.000
    Si1853   Si       0.45792    0.26518    0.54732    1.000
    N1854    N        0.37439    0.25332    0.61747    1.000
    N1855    N        0.43887    0.27681    0.61880    1.000
    N1856    N        0.37505    0.30256    0.50732    1.000
    N1857    N        0.25749    0.26006    0.62928    1.000
    Si1858   Si       0.34454    0.26199    0.64708    1.000
    Si1859   Si       0.33743    0.27735    0.71804    1.000
    N1860    N        0.31837    0.29590    0.63243    1.000
    N1861    N        0.30741    0.24662    0.71972    1.000
    Si1862   Si       0.27615    0.29870    0.64060    1.000
    N1863    N        0.36207    0.26601    0.68617    1.000
    N1864    N        0.26005    0.29607    0.74486    1.000
    N1865    N        0.47447    0.26040    0.73411    1.000
    N1866    N        0.43196    0.24745    0.67951    1.000
    Si1867   Si       0.45424    0.29896    0.74419    1.000
    N1868    N        0.41564    0.27968    0.73319    1.000
    Si1869   Si       0.40323    0.28114    0.69011    1.000
    Si1870   Si       0.33445    0.26766    0.79545    1.000
    N1871    N        0.32841    0.28690    0.83406    1.000
    N1872    N        0.29176    0.25816    0.79018    1.000
    N1873    N        0.35465    0.28396    0.75813    1.000
    N1874    N        0.26146    0.27518    0.85920    1.000
    Si1875   Si       0.26037    0.25326    0.82062    1.000
    Si1876   Si       0.27602    0.25725    0.75051    1.000
    N1877    N        0.41759    0.26346    0.80372    1.000
    Si1878   Si       0.45080    0.28734    0.81618    1.000
    N1879    N        0.48066    0.27434    0.84715    1.000
    Si1880   Si       0.39314    0.25564    0.76417    1.000
    Si1881   Si       0.34252    0.26225    0.87134    1.000
    N1882    N        0.33351    0.27329    0.98421    1.000
    N1883    N        0.32017    0.27012    0.90864    1.000
    N1884    N        0.25458    0.29590    0.92805    1.000
    Si1885   Si       0.24098    0.26747    0.89867    1.000
    N1886    N        0.38990    0.25127    0.99320    1.000
    N1887    N        0.43397    0.27622    0.89353    1.000
    Si1888   Si       0.36935    0.26867    0.95669    1.000
    N1889    N        0.37271    0.30038    0.88086    1.000
    N1890    N        0.28845    0.31879    0.01434    1.000
    N1891    N        0.30743    0.34282    0.07600    1.000
    N1892    N        0.34883    0.33876    0.00591    1.000
    Si1893   Si       0.28760    0.35405    0.03861    1.000
    N1894    N        0.24600    0.34890    0.05772    1.000
    Si1895   Si       0.27004    0.35682    0.09430    1.000
    N1896    N        0.24328    0.33660    0.11889    1.000
    N1897    N        0.41344    0.31368    0.01892    1.000
    Si1898   Si       0.37721    0.32477    0.03779    1.000
    Si1899   Si       0.40120    0.33938    0.10475    1.000
    N1900    N        0.47411    0.31563    0.06782    1.000
    Si1901   Si       0.47220    0.34776    0.09579    1.000
    N1902    N        0.37862    0.35635    0.06646    1.000
    N1903    N        0.40589    0.30025    0.08119    1.000
    N1904    N        0.36109    0.34839    0.12459    1.000
    N1905    N        0.33678    0.31629    0.18424    1.000
    N1906    N        0.25507    0.34444    0.18666    1.000
    Si1907   Si       0.34754    0.35389    0.16388    1.000
    Si1908   Si       0.24146    0.30461    0.21024    1.000
    N1909    N        0.28488    0.30618    0.23450    1.000
    Si1910   Si       0.45981    0.33862    0.22631    1.000
    N1911    N        0.48455    0.32606    0.19184    1.000
    N1912    N        0.41708    0.32514    0.14476    1.000
    N1913    N        0.41801    0.33558    0.21711    1.000
    Si1914   Si       0.41725    0.35456    0.17834    1.000
    N1915    N        0.26117    0.32095    0.35415    1.000
    N1916    N        0.29786    0.35026    0.30127    1.000
    Si1917   Si       0.28188    0.31329    0.31753    1.000
    N1918    N        0.34858    0.32954    0.24619    1.000
    Si1919   Si       0.48572    0.31754    0.29582    1.000
    N1920    N        0.40973    0.32809    0.28598    1.000
    N1921    N        0.45868    0.32718    0.32907    1.000
    Si1922   Si       0.43053    0.35603    0.31179    1.000
    Si1923   Si       0.39123    0.31983    0.24767    1.000
    Si1924   Si       0.46486    0.32243    0.37086    1.000
    N1925    N        0.47205    0.30646    0.25545    1.000
    N1926    N        0.32960    0.30576    0.44498    1.000
    Si1927   Si       0.32207    0.34039    0.41361    1.000
    Si1928   Si       0.25349    0.34306    0.44910    1.000
    N1929    N        0.27841    0.34169    0.41233    1.000
    N1930    N        0.34990    0.33138    0.38172    1.000
    Si1931   Si       0.25961    0.35833    0.37604    1.000
    N1932    N        0.45019    0.30371    0.44256    1.000
    N1933    N        0.42126    0.32416    0.39062    1.000
    N1934    N        0.47567    0.35567    0.39518    1.000
    Si1935   Si       0.37172    0.31263    0.46290    1.000
    N1936    N        0.39328    0.34957    0.46071    1.000
    Si1937   Si       0.44563    0.34372    0.42421    1.000
    Si1938   Si       0.38872    0.35332    0.37873    1.000
    Si1939   Si       0.42521    0.36385    0.48717    1.000
    Si1940   Si       0.34000    0.31943    0.60399    1.000
    N1941    N        0.26002    0.32704    0.61099    1.000
    Si1942   Si       0.34949    0.32914    0.53401    1.000
    N1943    N        0.32105    0.34119    0.50181    1.000
    N1944    N        0.33295    0.30411    0.56482    1.000
    N1945    N        0.32358    0.35959    0.60425    1.000
    Si1946   Si       0.46366    0.34463    0.54285    1.000
    N1947    N        0.44292    0.33137    0.50813    1.000
    N1948    N        0.38575    0.32171    0.60899    1.000
    Si1949   Si       0.47133    0.30653    0.60901    1.000
    N1950    N        0.47236    0.30575    0.56524    1.000
    N1951    N        0.25344    0.31089    0.67581    1.000
    N1952    N        0.31632    0.31451    0.70977    1.000
    Si1953   Si       0.27367    0.32005    0.71236    1.000
    Si1954   Si       0.32380    0.35900    0.71735    1.000
    Si1955   Si       0.41332    0.34129    0.63462    1.000
    N1956    N        0.45721    0.34460    0.62550    1.000
    N1957    N        0.40816    0.31868    0.67207    1.000
    N1958    N        0.46740    0.33416    0.71970    1.000
    N1959    N        0.26475    0.32783    0.81199    1.000
    N1960    N        0.35418    0.35756    0.75020    1.000
    Si1961   Si       0.35753    0.31907    0.84415    1.000
    N1962    N        0.34736    0.36261    0.85288    1.000
    Si1963   Si       0.28755    0.30739    0.84235    1.000
    Si1964   Si       0.23930    0.31080    0.77927    1.000
    N1965    N        0.41655    0.33726    0.75886    1.000
    N1966    N        0.38061    0.32741    0.80822    1.000
    Si1967   Si       0.37616    0.32194    0.76485    1.000
    N1968    N        0.44389    0.32548    0.83996    1.000
    Si1969   Si       0.42377    0.34283    0.80302    1.000
    N1970    N        0.47018    0.30719    0.78378    1.000
    N1971    N        0.29622    0.32844    0.88013    1.000
    N1972    N        0.31688    0.32967    0.94644    1.000
    Si1973   Si       0.32075    0.31488    0.98532    1.000
    Si1974   Si       0.29656    0.30667    0.91582    1.000
    N1975    N        0.45450    0.33064    0.96607    1.000
    Si1976   Si       0.41282    0.32864    0.97659    1.000
    Si1977   Si       0.48491    0.30855    0.98789    1.000
    Si1978   Si       0.40659    0.30835    0.90749    1.000
    N1979    N        0.44134    0.33784    0.90066    1.000
    Si1980   Si       0.46379    0.35932    0.93307    1.000
    N1981    N        0.39118    0.30476    0.94791    1.000
    Si1982   Si       0.46493    0.30532    0.87837    1.000
    N1983    N        0.29279    0.39441    0.02603    1.000
    N1984    N        0.35316    0.40847    0.08656    1.000
    N1985    N        0.27401    0.39879    0.10863    1.000
    N1986    N        0.36128    0.40769    0.02136    1.000
    Si1987   Si       0.34110    0.36472    0.09007    1.000
    Si1988   Si       0.38280    0.40160    0.05864    1.000
    N1989    N        0.43523    0.36754    0.10126    1.000
    N1990    N        0.29463    0.38216    0.23820    1.000
    N1991    N        0.31447    0.38089    0.16517    1.000
    Si1992   Si       0.28282    0.37807    0.19588    1.000
    Si1993   Si       0.29168    0.41401    0.14599    1.000
    N1994    N        0.26516    0.41572    0.17904    1.000
    Si1995   Si       0.39240    0.42036    0.17543    1.000
    Si1996   Si       0.44322    0.39743    0.13078    1.000
    N1997    N        0.45169    0.38203    0.17104    1.000
    N1998    N        0.46956    0.37878    0.23491    1.000
    Si1999   Si       0.45932    0.41182    0.20434    1.000
    N2000    N        0.38033    0.37880    0.17850    1.000
    N2001    N        0.34717    0.38585    0.29270    1.000
    Si2002   Si       0.31185    0.38862    0.32083    1.000
    N2003    N        0.27855    0.38748    0.34971    1.000
    N2004    N        0.34187    0.40826    0.35248    1.000
    Si2005   Si       0.27139    0.41055    0.26127    1.000
    Si2006   Si       0.25097    0.40759    0.32116    1.000
    Si2007   Si       0.32382    0.36068    0.26538    1.000
    Si2008   Si       0.48677    0.38700    0.27328    1.000
    Si2009   Si       0.37514    0.40024    0.32475    1.000
    N2010    N        0.45373    0.39263    0.30225    1.000
    N2011    N        0.39994    0.36911    0.33936    1.000
    N2012    N        0.26888    0.37712    0.46945    1.000
    Si2013   Si       0.31252    0.37767    0.47914    1.000
    N2014    N        0.33314    0.37312    0.44033    1.000
    Si2015   Si       0.26259    0.41705    0.48631    1.000
    N2016    N        0.31134    0.41855    0.48947    1.000
    Si2017   Si       0.37441    0.38420    0.43975    1.000
    Si2018   Si       0.47695    0.40584    0.44994    1.000
    N2019    N        0.45486    0.37034    0.45688    1.000
    N2020    N        0.39457    0.38849    0.40260    1.000
    Si2021   Si       0.34378    0.39516    0.58158    1.000
    N2022    N        0.30970    0.41683    0.56210    1.000
    N2023    N        0.36404    0.36563    0.55315    1.000
    Si2024   Si       0.24635    0.36625    0.62478    1.000
    N2025    N        0.43788    0.37204    0.56634    1.000
    Si2026   Si       0.40007    0.38759    0.55135    1.000
    Si2027   Si       0.45116    0.38550    0.60786    1.000
    N2028    N        0.40821    0.39703    0.50992    1.000
    N2029    N        0.38420    0.41954    0.57698    1.000
    N2030    N        0.34356    0.41403    0.62460    1.000
    Si2031   Si       0.31498    0.38368    0.63882    1.000
    N2032    N        0.27315    0.39124    0.64808    1.000
    N2033    N        0.32427    0.40740    0.73547    1.000
    N2034    N        0.33193    0.37551    0.67747    1.000
    Si2035   Si       0.33995    0.41462    0.69377    1.000
    N2036    N        0.28147    0.36144    0.72425    1.000
    Si2037   Si       0.28003    0.40707    0.74466    1.000
    N2038    N        0.41036    0.38645    0.63012    1.000
    Si2039   Si       0.38422    0.41911    0.63810    1.000
    Si2040   Si       0.48729    0.41353    0.70901    1.000
    Si2041   Si       0.44316    0.36498    0.73976    1.000
    N2042    N        0.44566    0.40172    0.71422    1.000
    N2043    N        0.27638    0.38847    0.84802    1.000
    N2044    N        0.25790    0.38863    0.77823    1.000
    Si2045   Si       0.35785    0.40013    0.76249    1.000
    Si2046   Si       0.25305    0.36974    0.81658    1.000
    N2047    N        0.36053    0.41191    0.80405    1.000
    Si2048   Si       0.30794    0.36960    0.86970    1.000
    N2049    N        0.46419    0.37091    0.77889    1.000
    Si2050   Si       0.37745    0.39412    0.84362    1.000
    N2051    N        0.41662    0.38042    0.82213    1.000
    Si2052   Si       0.46231    0.39413    0.81512    1.000
    N2053    N        0.47212    0.38482    0.85846    1.000
    Si2054   Si       0.43376    0.36262    0.86531    1.000
    Si2055   Si       0.25462    0.41614    0.87368    1.000
    N2056    N        0.30504    0.39418    0.90585    1.000
    N2057    N        0.32951    0.39860    0.96422    1.000
    Si2058   Si       0.30160    0.37276    0.94305    1.000
    Si2059   Si       0.35571    0.37777    0.99006    1.000
    N2060    N        0.25840    0.36344    0.95334    1.000
    N2061    N        0.39448    0.36762    0.97519    1.000
    N2062    N        0.40649    0.39229    0.88165    1.000
    Si2063   Si       0.41324    0.40582    0.96918    1.000
    N2064    N        0.44647    0.40013    0.93801    1.000
    Si2065   Si       0.33719    0.44719    0.09421    1.000
    N2066    N        0.28206    0.45446    0.01618    1.000
    Si2067   Si       0.32331    0.43142    0.01971    1.000
    N2068    N        0.32837    0.45856    0.05433    1.000
    Si2069   Si       0.25423    0.41659    0.01795    1.000
    N2070    N        0.37037    0.47251    0.11150    1.000
    Si2071   Si       0.40644    0.44932    0.10043    1.000
    Si2072   Si       0.44485    0.44479    0.03501    1.000
    N2073    N        0.41513    0.42933    0.06204    1.000
    N2074    N        0.48576    0.43574    0.04903    1.000
    N2075    N        0.47628    0.42163    0.11827    1.000
    Si2076   Si       0.34520    0.47370    0.15174    1.000
    N2077    N        0.31715    0.44610    0.13321    1.000
    N2078    N        0.25774    0.44724    0.24222    1.000
    Si2079   Si       0.47987    0.48156    0.19653    1.000
    N2080    N        0.41115    0.42516    0.13594    1.000
    Si2081   Si       0.47171    0.46692    0.12238    1.000
    N2082    N        0.42203    0.43261    0.20367    1.000
    Si2083   Si       0.40390    0.47263    0.20895    1.000
    N2084    N        0.37098    0.45819    0.18152    1.000
    Si2085   Si       0.30527    0.46330    0.30859    1.000
    N2086    N        0.31993    0.47204    0.35057    1.000
    N2087    N        0.28852    0.42408    0.30099    1.000
    N2088    N        0.33775    0.47326    0.28047    1.000
    Si2089   Si       0.43868    0.43052    0.31605    1.000
    N2090    N        0.45522    0.46457    0.29703    1.000
    N2091    N        0.39553    0.43160    0.30736    1.000
    Si2092   Si       0.37914    0.46657    0.28912    1.000
    N2093    N        0.43962    0.43570    0.35976    1.000
    N2094    N        0.39994    0.47446    0.25021    1.000
    Si2095   Si       0.48901    0.46340    0.26756    1.000
    Si2096   Si       0.34182    0.44415    0.37761    1.000
    N2097    N        0.26411    0.45320    0.46185    1.000
    Si2098   Si       0.33451    0.44102    0.45676    1.000
    Si2099   Si       0.27887    0.44919    0.41770    1.000
    N2100    N        0.32003    0.43894    0.41668    1.000
    N2101    N        0.24611    0.42354    0.40777    1.000
    N2102    N        0.38383    0.45731    0.39132    1.000
    Si2103   Si       0.41444    0.42730    0.39729    1.000
    N2104    N        0.47710    0.42638    0.48927    1.000
    Si2105   Si       0.47666    0.44170    0.38434    1.000
    N2106    N        0.37453    0.42467    0.45819    1.000
    Si2107   Si       0.46223    0.46642    0.48830    1.000
    N2108    N        0.45458    0.42628    0.41838    1.000
    Si2109   Si       0.31871    0.44210    0.52674    1.000
    N2110    N        0.26002    0.46253    0.57810    1.000
    N2111    N        0.36011    0.45139    0.51907    1.000
    N2112    N        0.29314    0.47619    0.52220    1.000
    Si2113   Si       0.25988    0.47718    0.61906    1.000
    N2114    N        0.24779    0.42014    0.52562    1.000
    Si2115   Si       0.26556    0.42235    0.56456    1.000
    N2116    N        0.44719    0.43313    0.59510    1.000
    Si2117   Si       0.41025    0.45422    0.58882    1.000
    N2118    N        0.42034    0.46941    0.49809    1.000
    Si2119   Si       0.39346    0.43565    0.49654    1.000
    N2120    N        0.24330    0.45689    0.65516    1.000
    Si2121   Si       0.26665    0.42543    0.67376    1.000
    N2122    N        0.30767    0.43877    0.67786    1.000
    N2123    N        0.25064    0.42169    0.71281    1.000
    N2124    N        0.39504    0.46087    0.62899    1.000
    Si2125   Si       0.41127    0.43039    0.70878    1.000
    N2126    N        0.48812    0.44942    0.68865    1.000
    N2127    N        0.47652    0.48089    0.74277    1.000
    N2128    N        0.37948    0.42394    0.68164    1.000
    N2129    N        0.42417    0.46971    0.69485    1.000
    N2130    N        0.28344    0.44807    0.76421    1.000
    N2131    N        0.35250    0.42640    0.86393    1.000
    Si2132   Si       0.36007    0.44875    0.82791    1.000
    N2133    N        0.33010    0.47708    0.81514    1.000
    Si2134   Si       0.31476    0.47682    0.77593    1.000
    N2135    N        0.46206    0.43712    0.80891    1.000
    N2136    N        0.39906    0.46717    0.83486    1.000
    Si2137   Si       0.43499    0.47205    0.80940    1.000
    N2138    N        0.39266    0.42102    0.74748    1.000
    N2139    N        0.24469    0.43209    0.97371    1.000
    N2140    N        0.28290    0.45135    0.87591    1.000
    Si2141   Si       0.25607    0.47044    0.98203    1.000
    Si2142   Si       0.34673    0.43761    0.95323    1.000
    N2143    N        0.32969    0.46244    0.92244    1.000
    Si2144   Si       0.31938    0.43341    0.89114    1.000
    N2145    N        0.33901    0.46275    0.98662    1.000
    N2146    N        0.42630    0.46574    0.90107    1.000
    N2147    N        0.38750    0.42889    0.94251    1.000
    Si2148   Si       0.47363    0.42547    0.96324    1.000
    N2149    N        0.44076    0.42820    0.99290    1.000
    N2150    N        0.48691    0.45581    0.93597    1.000
    Si2151   Si       0.41706    0.42261    0.90952    1.000
    N2152    N        0.26409    0.49794    0.06941    1.000
    N2153    N        0.31324    0.51724    0.01819    1.000
    Si2154   Si       0.29751    0.48730    0.04393    1.000
    Si2155   Si       0.26313    0.53593    0.09101    1.000
    N2156    N        0.47877    0.52607    0.06503    1.000
    Si2157   Si       0.37962    0.51456    0.10165    1.000
    Si2158   Si       0.43881    0.50634    0.06456    1.000
    N2159    N        0.40055    0.52602    0.06559    1.000
    N2160    N        0.43998    0.48898    0.02479    1.000
    N2161    N        0.44091    0.47726    0.09530    1.000
    Si2162   Si       0.31593    0.52413    0.21007    1.000
    N2163    N        0.28400    0.50888    0.23245    1.000
    N2164    N        0.26907    0.52494    0.13220    1.000
    N2165    N        0.35148    0.53072    0.23440    1.000
    N2166    N        0.32644    0.50843    0.17301    1.000
    Si2167   Si       0.43569    0.52301    0.15958    1.000
    N2168    N        0.40809    0.53483    0.12911    1.000
    N2169    N        0.46271    0.48155    0.23607    1.000
    N2170    N        0.45890    0.48633    0.15922    1.000
    N2171    N        0.41085    0.51451    0.19480    1.000
    Si2172   Si       0.34968    0.51624    0.27622    1.000
    N2173    N        0.27634    0.49867    0.29959    1.000
    Si2174   Si       0.25913    0.48713    0.26112    1.000
    Si2175   Si       0.28737    0.53968    0.31114    1.000
    N2176    N        0.28719    0.54006    0.35505    1.000
    N2177    N        0.38733    0.50759    0.30420    1.000
    Si2178   Si       0.43590    0.49352    0.26848    1.000
    N2179    N        0.44549    0.53523    0.27846    1.000
    Si2180   Si       0.24372    0.50632    0.42331    1.000
    Si2181   Si       0.30820    0.50556    0.37577    1.000
    N2182    N        0.27684    0.48853    0.40163    1.000
    N2183    N        0.34773    0.51995    0.39337    1.000
    N2184    N        0.25171    0.51577    0.46481    1.000
    Si2185   Si       0.34895    0.51929    0.47096    1.000
    Si2186   Si       0.28197    0.48853    0.48096    1.000
    N2187    N        0.32272    0.48485    0.46505    1.000
    Si2188   Si       0.42074    0.50440    0.47063    1.000
    N2189    N        0.42627    0.51687    0.39844    1.000
    Si2190   Si       0.46859    0.50598    0.41193    1.000
    N2191    N        0.38267    0.50578    0.44726    1.000
    N2192    N        0.45558    0.48551    0.44931    1.000
    Si2193   Si       0.38447    0.49933    0.40388    1.000
    Si2194   Si       0.26867    0.49592    0.55369    1.000
    Si2195   Si       0.32097    0.51265    0.60061    1.000
    N2196    N        0.34259    0.50138    0.56669    1.000
    N2197    N        0.28558    0.52724    0.58051    1.000
    Si2198   Si       0.33221    0.53638    0.53909    1.000
    N2199    N        0.36464    0.52423    0.51220    1.000
    N2200    N        0.48323    0.49378    0.51336    1.000
    N2201    N        0.45619    0.52021    0.60329    1.000
    Si2202   Si       0.42859    0.52731    0.57075    1.000
    Si2203   Si       0.37531    0.49019    0.53802    1.000
    N2204    N        0.41037    0.48772    0.56234    1.000
    Si2205   Si       0.47356    0.53696    0.51195    1.000
    N2206    N        0.28589    0.50691    0.68898    1.000
    N2207    N        0.35392    0.49044    0.68440    1.000
    Si2208   Si       0.34753    0.51978    0.71601    1.000
    Si2209   Si       0.24848    0.52088    0.70378    1.000
    N2210    N        0.30054    0.48523    0.62745    1.000
    Si2211   Si       0.31514    0.47948    0.66918    1.000
    N2212    N        0.47891    0.50954    0.66604    1.000
    N2213    N        0.40517    0.52641    0.65229    1.000
    Si2214   Si       0.44755    0.53243    0.64472    1.000
    Si2215   Si       0.46376    0.48616    0.70106    1.000
    Si2216   Si       0.39323    0.48459    0.66580    1.000
    N2217    N        0.45149    0.53122    0.71908    1.000
    Si2218   Si       0.34341    0.51536    0.83398    1.000
    N2219    N        0.28635    0.50814    0.77557    1.000
    N2220    N        0.24739    0.50497    0.84350    1.000
    N2221    N        0.34717    0.49235    0.75218    1.000
    Si2222   Si       0.25261    0.48043    0.76867    1.000
    Si2223   Si       0.46485    0.52575    0.85905    1.000
    Si2224   Si       0.38229    0.51140    0.77032    1.000
    N2225    N        0.42084    0.49589    0.77542    1.000
    N2226    N        0.46751    0.49695    0.82796    1.000
    Si2227   Si       0.45554    0.51625    0.75887    1.000
    N2228    N        0.37557    0.52932    0.80967    1.000
    N2229    N        0.42277    0.52749    0.86983    1.000
    Si2230   Si       0.24990    0.52301    0.93562    1.000
    Si2231   Si       0.33397    0.50454    0.91196    1.000
    Si2232   Si       0.26496    0.49159    0.88022    1.000
    N2233    N        0.34195    0.52481    0.95175    1.000
    N2234    N        0.29494    0.51911    0.89694    1.000
    N2235    N        0.27813    0.49987    0.96093    1.000
    Si2236   Si       0.31979    0.50023    0.97805    1.000
    N2237    N        0.35787    0.50829    0.87464    1.000
    N2238    N        0.43967    0.50680    0.95567    1.000
    Si2239   Si       0.45705    0.48573    0.92322    1.000
    Si2240   Si       0.40071    0.49017    0.87215    1.000
    N2241    N        0.47927    0.51190    0.89701    1.000
    Si2242   Si       0.42879    0.52167    0.99429    1.000
    Si2243   Si       0.31414    0.55778    0.03340    1.000
    N2244    N        0.35163    0.57571    0.04799    1.000
    Si2245   Si       0.33108    0.57294    0.09215    1.000
    N2246    N        0.29546    0.55710    0.07217    1.000
    N2247    N        0.29005    0.58189    0.00814    1.000
    N2248    N        0.34606    0.53758    0.11482    1.000
    Si2249   Si       0.38917    0.55686    0.03836    1.000
    N2250    N        0.45424    0.55679    0.00751    1.000
    N2251    N        0.41364    0.59452    0.04487    1.000
    N2252    N        0.37219    0.59225    0.10341    1.000
    N2253    N        0.39109    0.54286    0.99731    1.000
    N2254    N        0.46773    0.59917    0.10045    1.000
    N2255    N        0.29583    0.56023    0.18930    1.000
    N2256    N        0.30592    0.58340    0.12964    1.000
    Si2257   Si       0.26648    0.59094    0.20092    1.000
    Si2258   Si       0.30564    0.54301    0.14760    1.000
    N2259    N        0.37203    0.57212    0.17967    1.000
    Si2260   Si       0.45844    0.59255    0.14460    1.000
    Si2261   Si       0.37617    0.56368    0.13766    1.000
    N2262    N        0.40805    0.57786    0.22844    1.000
    N2263    N        0.48080    0.57525    0.22563    1.000
    Si2264   Si       0.38330    0.54484    0.21133    1.000
    N2265    N        0.46619    0.55437    0.16177    1.000
    Si2266   Si       0.35112    0.58213    0.29511    1.000
    N2267    N        0.26278    0.57149    0.29423    1.000
    N2268    N        0.32725    0.54662    0.29690    1.000
    Si2269   Si       0.47655    0.56529    0.26778    1.000
    N2270    N        0.39425    0.58160    0.29291    1.000
    N2271    N        0.40873    0.56038    0.34894    1.000
    Si2272   Si       0.41301    0.54420    0.30788    1.000
    Si2273   Si       0.34413    0.56056    0.41392    1.000
    N2274    N        0.30928    0.58367    0.40226    1.000
    Si2275   Si       0.27203    0.56863    0.38660    1.000
    N2276    N        0.33894    0.55843    0.45722    1.000
    N2277    N        0.24022    0.54529    0.40524    1.000
    Si2278   Si       0.41496    0.55694    0.39083    1.000
    N2279    N        0.44374    0.54284    0.47740    1.000
    Si2280   Si       0.46120    0.56620    0.44541    1.000
    N2281    N        0.38333    0.57766    0.41202    1.000
    N2282    N        0.44922    0.57941    0.40423    1.000
    N2283    N        0.48075    0.59828    0.46718    1.000
    N2284    N        0.33838    0.57113    0.56346    1.000
    Si2285   Si       0.27432    0.58409    0.50874    1.000
    Si2286   Si       0.25804    0.54808    0.60855    1.000
    N2287    N        0.30170    0.55011    0.51113    1.000
    N2288    N        0.45090    0.55424    0.54399    1.000
    N2289    N        0.39674    0.55108    0.58761    1.000
    Si2290   Si       0.44142    0.59536    0.55593    1.000
    Si2291   Si       0.37471    0.59101    0.58155    1.000
    N2292    N        0.45215    0.60074    0.59671    1.000
    N2293    N        0.26001    0.55878    0.72531    1.000
    N2294    N        0.32533    0.55281    0.70072    1.000
    Si2295   Si       0.29913    0.57752    0.72284    1.000
    N2296    N        0.27473    0.56408    0.64554    1.000
    Si2297   Si       0.30653    0.53918    0.66301    1.000
    N2298    N        0.33670    0.53802    0.63174    1.000
    N2299    N        0.46736    0.59361    0.72950    1.000
    Si2300   Si       0.47569    0.55996    0.70134    1.000
    Si2301   Si       0.37965    0.55042    0.62828    1.000
    N2302    N        0.45941    0.56957    0.66181    1.000
    N2303    N        0.37988    0.54170    0.73645    1.000
    N2304    N        0.37715    0.59471    0.62706    1.000
    N2305    N        0.30308    0.58081    0.76576    1.000
    Si2306   Si       0.29078    0.54726    0.79354    1.000
    N2307    N        0.24781    0.55928    0.79769    1.000
    N2308    N        0.31116    0.54492    0.83255    1.000
    Si2309   Si       0.23994    0.57958    0.76038    1.000
    N2310    N        0.26057    0.57330    0.86843    1.000
    Si2311   Si       0.39517    0.56717    0.81313    1.000
    N2312    N        0.42495    0.56485    0.77985    1.000
    Si2313   Si       0.46241    0.58014    0.77109    1.000
    N2314    N        0.40453    0.58683    0.84937    1.000
    Si2315   Si       0.39383    0.57835    0.75227    1.000
    N2316    N        0.36764    0.59282    0.78715    1.000
    N2317    N        0.48596    0.54335    0.77714    1.000
    Si2318   Si       0.29925    0.55579    0.87316    1.000
    Si2319   Si       0.25463    0.57690    0.98135    1.000
    N2320    N        0.32410    0.58470    0.89497    1.000
    N2321    N        0.25921    0.56730    0.93964    1.000
    Si2322   Si       0.24898    0.59146    0.90626    1.000
    Si2323   Si       0.36058    0.59285    0.91489    1.000
    N2324    N        0.35816    0.59775    0.95935    1.000
    Si2325   Si       0.41764    0.56703    0.88753    1.000
    N2326    N        0.38982    0.55992    0.92044    1.000
    N2327    N        0.45210    0.58652    0.90748    1.000
    Si2328   Si       0.37166    0.55585    0.96090    1.000
    Si2329   Si       0.27257    0.61988    0.01754    1.000
    Si2330   Si       0.24523    0.64471    0.08773    1.000
    N2331    N        0.25022    0.61760    0.05440    1.000
    N2332    N        0.28271    0.64263    0.11168    1.000
    N2333    N        0.34086    0.64509    0.07180    1.000
    N2334    N        0.36912    0.63585    0.01740    1.000
    Si2335   Si       0.37365    0.61685    0.05901    1.000
    Si2336   Si       0.44071    0.61996    0.07220    1.000
    N2337    N        0.46202    0.63196    0.03453    1.000
    N2338    N        0.40706    0.64362    0.08655    1.000
    Si2339   Si       0.44117    0.59943    0.01126    1.000
    N2340    N        0.30667    0.62773    0.18345    1.000
    Si2341   Si       0.28382    0.61626    0.14619    1.000
    N2342    N        0.24637    0.61154    0.16960    1.000
    N2343    N        0.27038    0.61944    0.23680    1.000
    Si2344   Si       0.34739    0.64932    0.17884    1.000
    N2345    N        0.35864    0.64677    0.13820    1.000
    Si2346   Si       0.29282    0.65333    0.21534    1.000
    N2347    N        0.43661    0.63136    0.22157    1.000
    Si2348   Si       0.39183    0.62589    0.12408    1.000
    N2349    N        0.48543    0.61773    0.16894    1.000
    N2350    N        0.41831    0.60809    0.15370    1.000
    Si2351   Si       0.40291    0.60655    0.19675    1.000
    N2352    N        0.37404    0.63678    0.21043    1.000
    Si2353   Si       0.47834    0.61497    0.21259    1.000
    Si2354   Si       0.32332    0.63817    0.33961    1.000
    N2355    N        0.28653    0.63975    0.30761    1.000
    N2356    N        0.33055    0.60785    0.26687    1.000
    Si2357   Si       0.28687    0.60605    0.27549    1.000
    Si2358   Si       0.35519    0.64335    0.25287    1.000
    N2359    N        0.35016    0.60369    0.33411    1.000
    Si2360   Si       0.24381    0.64744    0.31583    1.000
    N2361    N        0.39582    0.64165    0.27079    1.000
    N2362    N        0.41421    0.63742    0.34290    1.000
    Si2363   Si       0.48036    0.62794    0.30706    1.000
    Si2364   Si       0.41908    0.60465    0.26078    1.000
    N2365    N        0.45671    0.60120    0.28132    1.000
    Si2366   Si       0.39377    0.60012    0.33710    1.000
    N2367    N        0.24386    0.60061    0.37659    1.000
    Si2368   Si       0.27363    0.64733    0.46438    1.000
    N2369    N        0.32856    0.65232    0.38025    1.000
    N2370    N        0.34559    0.62481    0.44064    1.000
    N2371    N        0.27374    0.64390    0.42018    1.000
    N2372    N        0.28925    0.60890    0.47808    1.000
    Si2373   Si       0.31089    0.62625    0.41136    1.000
    Si2374   Si       0.32990    0.59844    0.47288    1.000
    N2375    N        0.46676    0.64380    0.39925    1.000
    Si2376   Si       0.45319    0.62515    0.48796    1.000
    Si2377   Si       0.42792    0.65702    0.38013    1.000
    N2378    N        0.41070    0.61247    0.47549    1.000
    N2379    N        0.39905    0.65031    0.41214    1.000
    Si2380   Si       0.47954    0.60426    0.38455    1.000
    Si2381   Si       0.38800    0.61415    0.43742    1.000
    N2382    N        0.34754    0.61408    0.51013    1.000
    Si2383   Si       0.32427    0.60970    0.54690    1.000
    N2384    N        0.34612    0.63065    0.57747    1.000
    N2385    N        0.28123    0.60764    0.54517    1.000
    Si2386   Si       0.24371    0.61258    0.56830    1.000
    N2387    N        0.24443    0.64931    0.59232    1.000
    N2388    N        0.46624    0.62711    0.53299    1.000
    Si2389   Si       0.38887    0.62695    0.51102    1.000
    N2390    N        0.40163    0.60531    0.54853    1.000
    Si2391   Si       0.26841    0.60618    0.65923    1.000
    N2392    N        0.29695    0.63273    0.63783    1.000
    Si2393   Si       0.31755    0.63813    0.67569    1.000
    N2394    N        0.28997    0.61030    0.69664    1.000
    N2395    N        0.35819    0.62620    0.68488    1.000
    N2396    N        0.40427    0.61176    0.72917    1.000
    Si2397   Si       0.38665    0.62875    0.65377    1.000
    N2398    N        0.43188    0.62550    0.66395    1.000
    Si2399   Si       0.44039    0.62068    0.70720    1.000
    Si2400   Si       0.46129    0.60473    0.63754    1.000
    Si2401   Si       0.37042    0.63894    0.72407    1.000
    N2402    N        0.30817    0.63167    0.81190    1.000
    Si2403   Si       0.32914    0.61204    0.77924    1.000
    Si2404   Si       0.26574    0.64527    0.80363    1.000
    N2405    N        0.33567    0.64308    0.75141    1.000
    N2406    N        0.24059    0.62206    0.77677    1.000
    Si2407   Si       0.39939    0.62754    0.85705    1.000
    N2408    N        0.47041    0.61197    0.79941    1.000
    N2409    N        0.37524    0.65047    0.82959    1.000
    N2410    N        0.43351    0.65742    0.84927    1.000
    Si2411   Si       0.46877    0.65580    0.79318    1.000
    N2412    N        0.25362    0.62028    0.97866    1.000
    N2413    N        0.26082    0.63462    0.90929    1.000
    Si2414   Si       0.25053    0.65120    0.94805    1.000
    N2415    N        0.38536    0.62685    0.89793    1.000
    N2416    N        0.42694    0.61667    0.97441    1.000
    Si2417   Si       0.45172    0.61945    0.93785    1.000
    Si2418   Si       0.38339    0.62880    0.97792    1.000
    N2419    N        0.34507    0.70315    0.01493    1.000
    Si2420   Si       0.26963    0.68443    0.00424    1.000
    Si2421   Si       0.33743    0.66269    0.03134    1.000
    N2422    N        0.32209    0.69903    0.11726    1.000
    Si2423   Si       0.32455    0.65673    0.10860    1.000
    N2424    N        0.29698    0.65484    0.02007    1.000
    Si2425   Si       0.41705    0.68617    0.08687    1.000
    N2426    N        0.45357    0.69562    0.06165    1.000
    N2427    N        0.41760    0.70462    0.00638    1.000
    Si2428   Si       0.48076    0.67117    0.03524    1.000
    Si2429   Si       0.33871    0.70366    0.22696    1.000
    Si2430   Si       0.24709    0.70648    0.18176    1.000
    N2431    N        0.25616    0.67584    0.21136    1.000
    N2432    N        0.33080    0.68762    0.18779    1.000
    N2433    N        0.42478    0.69964    0.12703    1.000
    Si2434   Si       0.45253    0.67716    0.15510    1.000
    N2435    N        0.37767    0.69742    0.24034    1.000
    N2436    N        0.48295    0.69637    0.18307    1.000
    N2437    N        0.48078    0.66730    0.12270    1.000
    Si2438   Si       0.41004    0.66812    0.22591    1.000
    N2439    N        0.41962    0.68314    0.18389    1.000
    Si2440   Si       0.30601    0.67678    0.28794    1.000
    N2441    N        0.33970    0.67132    0.31619    1.000
    N2442    N        0.28200    0.70942    0.30143    1.000
    N2443    N        0.24334    0.66616    0.35487    1.000
    N2444    N        0.31878    0.66952    0.24729    1.000
    Si2445   Si       0.23788    0.71026    0.36178    1.000
    Si2446   Si       0.36264    0.70347    0.33223    1.000
    N2447    N        0.45731    0.66475    0.29956    1.000
    N2448    N        0.40083    0.70185    0.30870    1.000
    Si2449   Si       0.46865    0.70073    0.27896    1.000
    Si2450   Si       0.41546    0.65961    0.30311    1.000
    N2451    N        0.44101    0.69758    0.36873    1.000
    N2452    N        0.43913    0.70569    0.24717    1.000
    Si2453   Si       0.36056    0.67057    0.40653    1.000
    N2454    N        0.34353    0.70403    0.43138    1.000
    N2455    N        0.29407    0.68438    0.47282    1.000
    Si2456   Si       0.48907    0.65817    0.43368    1.000
    N2457    N        0.46079    0.66314    0.46867    1.000
    N2458    N        0.36902    0.70385    0.37380    1.000
    Si2459   Si       0.43724    0.69092    0.49103    1.000
    N2460    N        0.30983    0.68434    0.59849    1.000
    N2461    N        0.33705    0.68752    0.52918    1.000
    Si2462   Si       0.34931    0.66660    0.59818    1.000
    Si2463   Si       0.30347    0.70811    0.51272    1.000
    Si2464   Si       0.27676    0.66279    0.61720    1.000
    Si2465   Si       0.37876    0.69340    0.53602    1.000
    N2466    N        0.37917    0.69658    0.58013    1.000
    N2467    N        0.44498    0.67289    0.59356    1.000
    N2468    N        0.45959    0.69813    0.52986    1.000
    Si2469   Si       0.40782    0.68984    0.61358    1.000
    N2470    N        0.40310    0.66941    0.51157    1.000
    Si2471   Si       0.46444    0.66496    0.55714    1.000
    Si2472   Si       0.46970    0.69760    0.62157    1.000
    N2473    N        0.31464    0.68011    0.68844    1.000
    N2474    N        0.25831    0.69061    0.64492    1.000
    Si2475   Si       0.35029    0.69707    0.71074    1.000
    Si2476   Si       0.27905    0.70496    0.68098    1.000
    N2477    N        0.25264    0.70253    0.71507    1.000
    N2478    N        0.32955    0.70823    0.74704    1.000
    Si2479   Si       0.42719    0.68601    0.73982    1.000
    N2480    N        0.37725    0.66466    0.63147    1.000
    N2481    N        0.38643    0.67878    0.72449    1.000
    N2482    N        0.45745    0.65846    0.72152    1.000
    N2483    N        0.33080    0.69443    0.81242    1.000
    Si2484   Si       0.31879    0.67744    0.77389    1.000
    N2485    N        0.27631    0.68043    0.78058    1.000
    Si2486   Si       0.33343    0.65813    0.83671    1.000
    N2487    N        0.24950    0.65751    0.84295    1.000
    N2488    N        0.48801    0.67724    0.82310    1.000
    Si2489   Si       0.40816    0.67819    0.81877    1.000
    N2490    N        0.43237    0.67658    0.78180    1.000
    Si2491   Si       0.47629    0.65996    0.86209    1.000
    N2492    N        0.31695    0.67056    0.87492    1.000
    Si2493   Si       0.33886    0.70511    0.89193    1.000
    N2494    N        0.26914    0.68605    0.96082    1.000
    Si2495   Si       0.27410    0.66778    0.88073    1.000
    N2496    N        0.25960    0.70468    0.89800    1.000
    Si2497   Si       0.45833    0.69745    0.91317    1.000
    N2498    N        0.44022    0.65753    0.92215    1.000
    Si2499   Si       0.37856    0.70778    0.98530    1.000
    N2500    N        0.38128    0.69388    0.89611    1.000
    N2501    N        0.48579    0.68440    0.99413    1.000
    Si2502   Si       0.45468    0.71139    0.98278    1.000
    N2503    N        0.38150    0.67019    0.96088    1.000
    Si2504   Si       0.39717    0.66266    0.92180    1.000
    N2505    N        0.26794    0.75356    0.08447    1.000
    Si2506   Si       0.31879    0.73640    0.02410    1.000
    N2507    N        0.33221    0.75922    0.05850    1.000
    Si2508   Si       0.24985    0.72595    0.05685    1.000
    N2509    N        0.27786    0.72101    0.02477    1.000
    Si2510   Si       0.37547    0.75663    0.06555    1.000
    Si2511   Si       0.43224    0.73078    0.04067    1.000
    N2512    N        0.46069    0.74684    0.00848    1.000
    N2513    N        0.44951    0.76517    0.06828    1.000
    N2514    N        0.39581    0.71973    0.06848    1.000
    N2515    N        0.28075    0.72685    0.16405    1.000
    N2516    N        0.32088    0.74051    0.23909    1.000
    Si2517   Si       0.28697    0.76869    0.15452    1.000
    Si2518   Si       0.32598    0.71913    0.15466    1.000
    Si2519   Si       0.45765    0.72072    0.20901    1.000
    Si2520   Si       0.40404    0.71735    0.16071    1.000
    N2521    N        0.36733    0.73538    0.15536    1.000
    N2522    N        0.42996    0.74508    0.18078    1.000
    N2523    N        0.34114    0.74127    0.32566    1.000
    Si2524   Si       0.29818    0.74265    0.32581    1.000
    N2525    N        0.27419    0.73619    0.36250    1.000
    N2526    N        0.24428    0.74927    0.26201    1.000
    Si2527   Si       0.23992    0.71412    0.28756    1.000
    N2528    N        0.40985    0.75839    0.34837    1.000
    N2529    N        0.46546    0.73103    0.31107    1.000
    N2530    N        0.39015    0.76098    0.28255    1.000
    Si2531   Si       0.42967    0.72216    0.33635    1.000
    Si2532   Si       0.40290    0.72149    0.26854    1.000
    Si2533   Si       0.37444    0.77057    0.32093    1.000
    N2534    N        0.31106    0.74385    0.48706    1.000
    N2535    N        0.32834    0.76242    0.40192    1.000
    N2536    N        0.27303    0.74234    0.43184    1.000
    Si2537   Si       0.27858    0.76736    0.39458    1.000
    Si2538   Si       0.36204    0.73585    0.40625    1.000
    Si2539   Si       0.30629    0.71944    0.45006    1.000
    Si2540   Si       0.24403    0.75868    0.45978    1.000
    Si2541   Si       0.47603    0.71670    0.38950    1.000
    N2542    N        0.45559    0.75091    0.40349    1.000
    N2543    N        0.42953    0.73015    0.47515    1.000
    Si2544   Si       0.43432    0.75669    0.44130    1.000
    N2545    N        0.39678    0.75831    0.41829    1.000
    N2546    N        0.33153    0.74917    0.57080    1.000
    N2547    N        0.27709    0.74806    0.60818    1.000
    Si2548   Si       0.29827    0.72223    0.58032    1.000
    N2549    N        0.27482    0.71707    0.54314    1.000
    Si2550   Si       0.37420    0.74376    0.57224    1.000
    N2551    N        0.38888    0.73614    0.53165    1.000
    Si2552   Si       0.42068    0.75610    0.51067    1.000
    N2553    N        0.45281    0.76358    0.53861    1.000
    Si2554   Si       0.48446    0.73393    0.52936    1.000
    N2555    N        0.39230    0.76916    0.60207    1.000
    Si2556   Si       0.24144    0.72732    0.62336    1.000
    N2557    N        0.28865    0.74646    0.67403    1.000
    Si2558   Si       0.32739    0.75935    0.68769    1.000
    N2559    N        0.36097    0.73471    0.69193    1.000
    Si2560   Si       0.42411    0.76232    0.63183    1.000
    Si2561   Si       0.40051    0.75277    0.69889    1.000
    Si2562   Si       0.44240    0.76351    0.74060    1.000
    N2563    N        0.43213    0.72049    0.63443    1.000
    N2564    N        0.43306    0.72572    0.71838    1.000
    N2565    N        0.34403    0.76035    0.79835    1.000
    N2566    N        0.27954    0.75110    0.77262    1.000
    Si2567   Si       0.32384    0.74720    0.76278    1.000
    N2568    N        0.26233    0.76436    0.85300    1.000
    Si2569   Si       0.35349    0.72908    0.82432    1.000
    N2570    N        0.34189    0.73856    0.86604    1.000
    Si2571   Si       0.25854    0.71333    0.75911    1.000
    Si2572   Si       0.48507    0.73985    0.86552    1.000
    N2573    N        0.46555    0.76809    0.77551    1.000
    N2574    N        0.39577    0.71906    0.83081    1.000
    Si2575   Si       0.40274    0.72449    0.87231    1.000
    N2576    N        0.46813    0.77374    0.84380    1.000
    N2577    N        0.26478    0.75626    0.95213    1.000
    Si2578   Si       0.33603    0.75183    0.95058    1.000
    N2579    N        0.31643    0.76215    0.98917    1.000
    N2580    N        0.32105    0.71942    0.92748    1.000
    Si2581   Si       0.27808    0.71833    0.93553    1.000
    Si2582   Si       0.41165    0.75545    0.93684    1.000
    N2583    N        0.44179    0.72444    0.94411    1.000
    N2584    N        0.39797    0.76127    0.89594    1.000
    N2585    N        0.44583    0.72142    0.87889    1.000
    N2586    N        0.37755    0.74539    0.96368    1.000
    N2587    N        0.28809    0.81719    0.07017    1.000
    N2588    N        0.25616    0.80775    0.01007    1.000
    Si2589   Si       0.25047    0.82159    0.05118    1.000
    Si2590   Si       0.30374    0.77789    0.08526    1.000
    N2591    N        0.45854    0.81436    0.02274    1.000
    Si2592   Si       0.42814    0.79694    0.04928    1.000
    Si2593   Si       0.40411    0.81875    0.11334    1.000
    N2594    N        0.38463    0.78196    0.10021    1.000
    Si2595   Si       0.48445    0.78224    0.00858    1.000
    N2596    N        0.39774    0.77325    0.03053    1.000
    N2597    N        0.25395    0.79010    0.14020    1.000
    N2598    N        0.30442    0.78654    0.18949    1.000
    Si2599   Si       0.32437    0.78075    0.22704    1.000
    Si2600   Si       0.29543    0.82701    0.20454    1.000
    N2601    N        0.36300    0.80217    0.22303    1.000
    Si2602   Si       0.36098    0.77415    0.13665    1.000
    N2603    N        0.32044    0.76883    0.12556    1.000
    Si2604   Si       0.42485    0.78585    0.17214    1.000
    N2605    N        0.38344    0.79991    0.16091    1.000
    N2606    N        0.44145    0.80321    0.13483    1.000
    N2607    N        0.44784    0.80485    0.20386    1.000
    Si2608   Si       0.48121    0.81440    0.14077    1.000
    Si2609   Si       0.36733    0.83034    0.18949    1.000
    Si2610   Si       0.48768    0.78460    0.20635    1.000
    Si2611   Si       0.27900    0.81498    0.33394    1.000
    Si2612   Si       0.26322    0.78730    0.26809    1.000
    N2613    N        0.35783    0.81785    0.28858    1.000
    N2614    N        0.28316    0.78163    0.30765    1.000
    N2615    N        0.35848    0.80262    0.34818    1.000
    N2616    N        0.29585    0.81234    0.24745    1.000
    Si2617   Si       0.38437    0.79793    0.26002    1.000
    N2618    N        0.48373    0.81739    0.35389    1.000
    N2619    N        0.41649    0.82700    0.25992    1.000
    N2620    N        0.47946    0.82857    0.28600    1.000
    N2621    N        0.29172    0.80763    0.37619    1.000
    N2622    N        0.33728    0.81054    0.48487    1.000
    Si2623   Si       0.33497    0.79983    0.38446    1.000
    N2624    N        0.25849    0.78811    0.48439    1.000
    N2625    N        0.35270    0.82735    0.41262    1.000
    Si2626   Si       0.30134    0.78714    0.49178    1.000
    N2627    N        0.45673    0.79413    0.45574    1.000
    Si2628   Si       0.43064    0.81923    0.47659    1.000
    N2629    N        0.42184    0.81736    0.39150    1.000
    Si2630   Si       0.42216    0.77528    0.38541    1.000
    N2631    N        0.30044    0.80869    0.59884    1.000
    Si2632   Si       0.31973    0.79305    0.56487    1.000
    N2633    N        0.29093    0.79619    0.53531    1.000
    N2634    N        0.35907    0.80683    0.55549    1.000
    Si2635   Si       0.24846    0.80025    0.52482    1.000
    Si2636   Si       0.36907    0.81586    0.51400    1.000
    N2637    N        0.42152    0.82669    0.56563    1.000
    Si2638   Si       0.38726    0.81097    0.58830    1.000
    Si2639   Si       0.45421    0.79587    0.56927    1.000
    N2640    N        0.46052    0.78051    0.61096    1.000
    N2641    N        0.40405    0.79391    0.49733    1.000
    N2642    N        0.35559    0.82945    0.69809    1.000
    N2643    N        0.33653    0.78344    0.65354    1.000
    N2644    N        0.26990    0.80378    0.65317    1.000
    Si2645   Si       0.33419    0.81911    0.73331    1.000
    N2646    N        0.31930    0.77610    0.72902    1.000
    Si2647   Si       0.27760    0.78827    0.74372    1.000
    N2648    N        0.24524    0.78229    0.71732    1.000
    Si2649   Si       0.29881    0.77811    0.63179    1.000
    N2650    N        0.29096    0.82859    0.74600    1.000
    Si2651   Si       0.25163    0.77240    0.67631    1.000
    N2652    N        0.40556    0.78173    0.66701    1.000
    N2653    N        0.39986    0.77372    0.73866    1.000
    N2654    N        0.45987    0.79225    0.71191    1.000
    Si2655   Si       0.36979    0.80949    0.66120    1.000
    N2656    N        0.37853    0.83322    0.62565    1.000
    N2657    N        0.29516    0.80762    0.80824    1.000
    N2658    N        0.35394    0.81989    0.77375    1.000
    N2659    N        0.35131    0.81043    0.85444    1.000
    Si2660   Si       0.33940    0.80181    0.81318    1.000
    Si2661   Si       0.26701    0.77459    0.81146    1.000
    N2662    N        0.41310    0.80803    0.80085    1.000
    Si2663   Si       0.45416    0.79461    0.80854    1.000
    Si2664   Si       0.39354    0.80881    0.76243    1.000
    Si2665   Si       0.24777    0.79615    0.87776    1.000
    N2666    N        0.33821    0.78203    0.92160    1.000
    N2667    N        0.30093    0.82369    0.96351    1.000
    Si2668   Si       0.31535    0.81642    0.92180    1.000
    Si2669   Si       0.28082    0.78807    0.97843    1.000
    N2670    N        0.27927    0.81891    0.89635    1.000
    Si2671   Si       0.35766    0.77571    0.88231    1.000
    Si2672   Si       0.47870    0.80187    0.87932    1.000
    N2673    N        0.45454    0.82628    0.90696    1.000
    N2674    N        0.36383    0.82100    0.98791    1.000
    Si2675   Si       0.45410    0.81696    0.95041    1.000
    Si2676   Si       0.38683    0.78573    0.98759    1.000
    N2677    N        0.48773    0.79242    0.96598    1.000
    N2678    N        0.41954    0.79275    0.95787    1.000
    N2679    N        0.32154    0.85955    0.02953    1.000
    Si2680   Si       0.31604    0.84957    0.07087    1.000
    N2681    N        0.34672    0.84699    0.09968    1.000
    N2682    N        0.29521    0.88781    0.08217    1.000
    Si2683   Si       0.36941    0.88229    0.11242    1.000
    Si2684   Si       0.41957    0.87566    0.06895    1.000
    Si2685   Si       0.45845    0.85698    0.01345    1.000
    N2686    N        0.42924    0.88577    0.02700    1.000
    N2687    N        0.45240    0.88770    0.09478    1.000
    N2688    N        0.41612    0.83155    0.07256    1.000
    N2689    N        0.32976    0.85056    0.19195    1.000
    Si2690   Si       0.25668    0.88092    0.17578    1.000
    N2691    N        0.25690    0.83896    0.19261    1.000
    Si2692   Si       0.32682    0.88854    0.21557    1.000
    N2693    N        0.40292    0.85961    0.12815    1.000
    Si2694   Si       0.44354    0.87826    0.13679    1.000
    N2695    N        0.40057    0.85503    0.19774    1.000
    Si2696   Si       0.43151    0.83818    0.22251    1.000
    N2697    N        0.46472    0.86532    0.23177    1.000
    N2698    N        0.47985    0.85881    0.14887    1.000
    N2699    N        0.30012    0.84751    0.31619    1.000
    N2700    N        0.32765    0.87740    0.25835    1.000
    Si2701   Si       0.28357    0.88522    0.33634    1.000
    Si2702   Si       0.31916    0.83803    0.27605    1.000
    N2703    N        0.36535    0.87678    0.31530    1.000
    Si2704   Si       0.43861    0.84305    0.29265    1.000
    Si2705   Si       0.44652    0.84053    0.36293    1.000
    Si2706   Si       0.37388    0.83476    0.32535    1.000
    N2707    N        0.43503    0.88873    0.29006    1.000
    N2708    N        0.41841    0.83383    0.32915    1.000
    N2709    N        0.29223    0.87843    0.37956    1.000
    N2710    N        0.29245    0.84342    0.43953    1.000
    Si2711   Si       0.27550    0.87449    0.46463    1.000
    Si2712   Si       0.27745    0.84264    0.39973    1.000
    N2713    N        0.34538    0.87914    0.45708    1.000
    Si2714   Si       0.33351    0.83717    0.45003    1.000
    N2715    N        0.45292    0.88270    0.37179    1.000
    N2716    N        0.39248    0.88650    0.39810    1.000
    N2717    N        0.40828    0.84737    0.45301    1.000
    Si2718   Si       0.37354    0.89191    0.48736    1.000
    Si2719   Si       0.39364    0.84496    0.41314    1.000
    N2720    N        0.28936    0.87565    0.50418    1.000
    Si2721   Si       0.27043    0.82993    0.61738    1.000
    Si2722   Si       0.42197    0.85812    0.53593    1.000
    N2723    N        0.38282    0.85875    0.51534    1.000
    N2724    N        0.45167    0.84166    0.50922    1.000
    N2725    N        0.43411    0.87657    0.62110    1.000
    N2726    N        0.28133    0.87138    0.62549    1.000
    Si2727   Si       0.35202    0.87429    0.69920    1.000
    Si2728   Si       0.27464    0.88263    0.66546    1.000
    N2729    N        0.35857    0.88619    0.74051    1.000
    N2730    N        0.31294    0.88683    0.68673    1.000
    Si2731   Si       0.45446    0.83195    0.72641    1.000
    Si2732   Si       0.39009    0.87566    0.63208    1.000
    N2733    N        0.45946    0.85784    0.69257    1.000
    N2734    N        0.38911    0.88471    0.67454    1.000
    N2735    N        0.41706    0.84246    0.74474    1.000
    Si2736   Si       0.28559    0.84490    0.78623    1.000
    N2737    N        0.27679    0.87317    0.85277    1.000
    N2738    N        0.34874    0.87984    0.84618    1.000
    N2739    N        0.30716    0.88235    0.79226    1.000
    N2740    N        0.24388    0.85211    0.79775    1.000
    Si2741   Si       0.41957    0.84565    0.82064    1.000
    N2742    N        0.40474    0.88118    0.80025    1.000
    Si2743   Si       0.39965    0.88027    0.75797    1.000
    N2744    N        0.40664    0.85263    0.86343    1.000
    N2745    N        0.46104    0.83675    0.82481    1.000
    N2746    N        0.48278    0.84255    0.75559    1.000
    Si2747   Si       0.36268    0.84796    0.87213    1.000
    N2748    N        0.33864    0.85163    0.90954    1.000
    Si2749   Si       0.27312    0.86371    0.89500    1.000
    Si2750   Si       0.32974    0.84473    0.98894    1.000
    N2751    N        0.33061    0.88742    0.97320    1.000
    Si2752   Si       0.32984    0.89071    0.93068    1.000
    N2753    N        0.42086    0.89132    0.92083    1.000
    N2754    N        0.47748    0.87692    0.87583    1.000
    N2755    N        0.45389    0.85585    0.97102    1.000
    Si2756   Si       0.43730    0.86351    0.89141    1.000
    N2757    N        0.28049    0.91476    0.02346    1.000
    N2758    N        0.34754    0.93489    0.02346    1.000
    Si2759   Si       0.32140    0.90205    0.01448    1.000
    Si2760   Si       0.26030    0.89725    0.05916    1.000
    Si2761   Si       0.30472    0.90785    0.11906    1.000
    Si2762   Si       0.25312    0.94120    0.12014    1.000
    N2763    N        0.29718    0.94911    0.10638    1.000
    Si2764   Si       0.43948    0.93038    0.02157    1.000
    N2765    N        0.38573    0.90451    0.07641    1.000
    N2766    N        0.47134    0.93601    0.05242    1.000
    Si2767   Si       0.37808    0.93966    0.05417    1.000
    Si2768   Si       0.48640    0.89655    0.07168    1.000
    N2769    N        0.26853    0.90911    0.14359    1.000
    Si2770   Si       0.34791    0.93964    0.16728    1.000
    N2771    N        0.34408    0.90855    0.13564    1.000
    Si2772   Si       0.24997    0.91010    0.23302    1.000
    N2773    N        0.36102    0.91001    0.19971    1.000
    N2774    N        0.28470    0.89594    0.21107    1.000
    N2775    N        0.42846    0.91053    0.16150    1.000
    N2776    N        0.41947    0.91993    0.22927    1.000
    Si2777   Si       0.43974    0.94804    0.14553    1.000
    Si2778   Si       0.40253    0.89925    0.19538    1.000
    Si2779   Si       0.45067    0.90109    0.25157    1.000
    N2780    N        0.30740    0.91775    0.31852    1.000
    Si2781   Si       0.33785    0.90179    0.29163    1.000
    N2782    N        0.24030    0.90108    0.33454    1.000
    N2783    N        0.37056    0.92594    0.27626    1.000
    N2784    N        0.40932    0.93016    0.33844    1.000
    Si2785   Si       0.39874    0.90456    0.30502    1.000
    N2786    N        0.48532    0.92738    0.25765    1.000
    Si2787   Si       0.39464    0.94921    0.24998    1.000
    N2788    N        0.33736    0.92814    0.40295    1.000
    Si2789   Si       0.29605    0.91634    0.40072    1.000
    N2790    N        0.28324    0.91098    0.44142    1.000
    N2791    N        0.27344    0.94549    0.37498    1.000
    N2792    N        0.43937    0.94873    0.38551    1.000
    N2793    N        0.39159    0.92145    0.45971    1.000
    Si2794   Si       0.42481    0.94247    0.47636    1.000
    N2795    N        0.46103    0.92133    0.48716    1.000
    Si2796   Si       0.41948    0.90966    0.37624    1.000
    Si2797   Si       0.36567    0.90651    0.42708    1.000
    N2798    N        0.48501    0.92304    0.42750    1.000
    Si2799   Si       0.30894    0.90933    0.52474    1.000
    Si2800   Si       0.28778    0.90869    0.60317    1.000
    N2801    N        0.35081    0.91826    0.51410    1.000
    Si2802   Si       0.34465    0.92568    0.58588    1.000
    N2803    N        0.31206    0.90330    0.56777    1.000
    N2804    N        0.24728    0.92530    0.60051    1.000
    N2805    N        0.28468    0.94440    0.51741    1.000
    N2806    N        0.31625    0.93767    0.61880    1.000
    Si2807   Si       0.24163    0.94347    0.51324    1.000
    N2808    N        0.45795    0.93049    0.60233    1.000
    Si2809   Si       0.42461    0.90504    0.58835    1.000
    Si2810   Si       0.46859    0.91387    0.52861    1.000
    N2811    N        0.38122    0.90418    0.60103    1.000
    N2812    N        0.43641    0.89501    0.54976    1.000
    N2813    N        0.48225    0.95244    0.54074    1.000
    N2814    N        0.25234    0.90426    0.73334    1.000
    N2815    N        0.26550    0.92517    0.66820    1.000
    Si2816   Si       0.29837    0.92801    0.69816    1.000
    N2817    N        0.31182    0.93456    0.73970    1.000
    Si2818   Si       0.24441    0.94773    0.63796    1.000
    N2819    N        0.42024    0.91045    0.73109    1.000
    N2820    N        0.45801    0.92114    0.67144    1.000
    Si2821   Si       0.46687    0.90236    0.63404    1.000
    Si2822   Si       0.43105    0.89283    0.69246    1.000
    Si2823   Si       0.33106    0.90592    0.76623    1.000
    N2824    N        0.30945    0.93547    0.85611    1.000
    N2825    N        0.35349    0.92663    0.79856    1.000
    Si2826   Si       0.26271    0.94247    0.75269    1.000
    Si2827   Si       0.30950    0.89739    0.83467    1.000
    N2828    N        0.27399    0.95194    0.79317    1.000
    N2829    N        0.40115    0.92557    0.85848    1.000
    Si2830   Si       0.37938    0.90357    0.82611    1.000
    Si2831   Si       0.26290    0.93352    0.92677    1.000
    N2832    N        0.35267    0.92170    0.91163    1.000
    N2833    N        0.28831    0.89686    0.91962    1.000
    N2834    N        0.24674    0.92973    0.96641    1.000
    Si2835   Si       0.32498    0.95049    0.89386    1.000
    N2836    N        0.44151    0.92919    0.97768    1.000
    N2837    N        0.48586    0.90429    0.93243    1.000
    Si2838   Si       0.39584    0.92268    0.90341    1.000
    Si2839   Si       0.44897    0.89372    0.95358    1.000
    Si2840   Si       0.32193    0.98096    0.09114    1.000
    N2841    N        0.30801    0.98760    0.05129    1.000
    Si2842   Si       0.33258    0.97597    0.01737    1.000
    N2843    N        0.36283    0.97227    0.08290    1.000
    N2844    N        0.36181    0.00635    0.00628    1.000
    N2845    N        0.24570    0.97429    0.02834    1.000
    Si2846   Si       0.26585    0.94752    0.00012    1.000
    Si2847   Si       0.46554    0.96275    0.08987    1.000
    N2848    N        0.42518    0.96366    0.10753    1.000
    Si2849   Si       0.40669    0.99908    0.01540    1.000
    N2850    N        0.47687    0.99039    0.01400    1.000
    N2851    N        0.41027    0.95971    0.03248    1.000
    Si2852   Si       0.38986    0.98555    0.11539    1.000
    Si2853   Si       0.28611    0.97315    0.21562    1.000
    N2854    N        0.31280    0.95758    0.18463    1.000
    N2855    N        0.31318    0.99224    0.24229    1.000
    N2856    N        0.24602    0.98432    0.13124    1.000
    N2857    N        0.26052    0.95224    0.24334    1.000
    N2858    N        0.26046    0.00541    0.19673    1.000
    N2859    N        0.43729    0.97589    0.17814    1.000
    N2860    N        0.37662    0.97021    0.15349    1.000
    N2861    N        0.38110    0.98285    0.22853    1.000
    Si2862   Si       0.47354    0.00432    0.17702    1.000
    Si2863   Si       0.39822    0.98974    0.18815    1.000
    N2864    N        0.48023    0.94947    0.12880    1.000
    N2865    N        0.32695    0.97863    0.35249    1.000
    N2866    N        0.26988    0.98217    0.31212    1.000
    Si2867   Si       0.29413    0.95389    0.33570    1.000
    Si2868   Si       0.35165    0.00575    0.24936    1.000
    Si2869   Si       0.24304    0.97387    0.27766    1.000
    N2870    N        0.36555    0.00003    0.29104    1.000
    Si2871   Si       0.46873    0.96207    0.27862    1.000
    Si2872   Si       0.43631    0.96465    0.34425    1.000
    N2873    N        0.42671    0.96649    0.27594    1.000
    N2874    N        0.41937    0.00302    0.33346    1.000
    N2875    N        0.47600    0.96479    0.32055    1.000
    Si2876   Si       0.40990    0.00190    0.29096    1.000
    N2877    N        0.30629    0.98567    0.42102    1.000
    Si2878   Si       0.33606    0.99698    0.45219    1.000
    Si2879   Si       0.26986    0.98491    0.39641    1.000
    Si2880   Si       0.33874    0.97134    0.39441    1.000
    N2881    N        0.33966    0.98289    0.49438    1.000
    N2882    N        0.27381    0.01067    0.49495    1.000
    N2883    N        0.36687    0.98857    0.42243    1.000
    Si2884   Si       0.46606    0.96080    0.41860    1.000
    N2885    N        0.43584    0.97259    0.44661    1.000
    Si2886   Si       0.40820    0.00234    0.42895    1.000
    Si2887   Si       0.30035    0.98550    0.51663    1.000
    Si2888   Si       0.34209    0.00247    0.57861    1.000
    N2889    N        0.35694    0.96252    0.56318    1.000
    N2890    N        0.30554    0.00286    0.55481    1.000
    Si2891   Si       0.36439    0.95799    0.52034    1.000
    N2892    N        0.44072    0.99239    0.57995    1.000
    N2893    N        0.40888    0.96408    0.51387    1.000
    Si2894   Si       0.43316    0.99389    0.53674    1.000
    Si2895   Si       0.47666    0.96382    0.58317    1.000
    N2896    N        0.46612    0.00550    0.50343    1.000
    N2897    N        0.33751    0.00441    0.62365    1.000
    N2898    N        0.25970    0.97141    0.71897    1.000
    Si2899   Si       0.28994    0.99952    0.70493    1.000
    Si2900   Si       0.31139    0.97479    0.64102    1.000
    Si2901   Si       0.34292    0.97339    0.72097    1.000
    N2902    N        0.26833    0.98412    0.63328    1.000
    N2903    N        0.31633    0.96970    0.68515    1.000
    N2904    N        0.43178    0.97611    0.70149    1.000
    N2905    N        0.47123    0.98103    0.64330    1.000
    N2906    N        0.37636    0.96341    0.74557    1.000
    Si2907   Si       0.46901    0.96107    0.68287    1.000
    Si2908   Si       0.42190    0.95256    0.73753    1.000
    N2909    N        0.32857    0.98884    0.80443    1.000
    Si2910   Si       0.29812    0.96617    0.82819    1.000
    N2911    N        0.26320    0.98859    0.84304    1.000
    Si2912   Si       0.24171    0.98501    0.80220    1.000
    Si2913   Si       0.36319    0.96740    0.78662    1.000
    N2914    N        0.46790    0.96620    0.83351    1.000
    N2915    N        0.40205    0.97131    0.80791    1.000
    Si2916   Si       0.46682    0.98505    0.79346    1.000
    N2917    N        0.41798    0.99575    0.85931    1.000
    Si2918   Si       0.42611    0.95682    0.84231    1.000
    N2919    N        0.45803    0.95612    0.76058    1.000
    N2920    N        0.35132    0.98738    0.88873    1.000
    N2921    N        0.29218    0.96595    0.92062    1.000
    Si2922   Si       0.29353    0.99907    0.95220    1.000
    N2923    N        0.30177    0.97265    0.98588    1.000
    N2924    N        0.41224    0.96038    0.91814    1.000
    N2925    N        0.41837    0.99912    0.97377    1.000
    N2926    N        0.47498    0.97798    0.94178    1.000
    Si2927   Si       0.43745    0.96589    0.95335    1.000
    Si2928   Si       0.39299    0.99005    0.89340    1.000
    Si2929   Si       0.58117    0.03879    0.04475    1.000
    N2930    N        0.52867    0.04277    0.11177    1.000
    N2931    N        0.50075    0.04590    0.02524    1.000
    N2932    N        0.57743    0.03831    0.00164    1.000
    Si2933   Si       0.50939    0.01389    0.99969    1.000
    N2934    N        0.67972    0.02251    0.00716    1.000
    N2935    N        0.62452    0.03284    0.04841    1.000
    Si2936   Si       0.65394    0.05372    0.02706    1.000
    N2937    N        0.66601    0.03463    0.10617    1.000
    N2938    N        0.73353    0.01622    0.07824    1.000
    N2939    N        0.59731    0.05863    0.13715    1.000
    N2940    N        0.60671    0.05229    0.20761    1.000
    Si2941   Si       0.57972    0.04188    0.24186    1.000
    Si2942   Si       0.65028    0.04693    0.20311    1.000
    N2943    N        0.73324    0.05681    0.23938    1.000
    N2944    N        0.66619    0.02208    0.23301    1.000
    Si2945   Si       0.70901    0.01936    0.23124    1.000
    N2946    N        0.65186    0.01851    0.16927    1.000
    Si2947   Si       0.62979    0.02790    0.13173    1.000
    N2948    N        0.53809    0.03223    0.30174    1.000
    N2949    N        0.59665    0.02075    0.33992    1.000
    N2950    N        0.60854    0.02794    0.27161    1.000
    N2951    N        0.49179    0.02066    0.35337    1.000
    N2952    N        0.71036    0.02578    0.32691    1.000
    Si2953   Si       0.62957    0.02790    0.31232    1.000
    N2954    N        0.64900    0.06278    0.32990    1.000
    Si2955   Si       0.69348    0.06620    0.33338    1.000
    Si2956   Si       0.59264    0.04344    0.37708    1.000
    N2957    N        0.54978    0.03367    0.39368    1.000
    N2958    N        0.52549    0.05295    0.48268    1.000
    N2959    N        0.58663    0.05312    0.49012    1.000
    N2960    N        0.61072    0.01631    0.40965    1.000
    Si2961   Si       0.55595    0.02333    0.49547    1.000
    N2962    N        0.71803    0.04267    0.49465    1.000
    N2963    N        0.67731    0.02241    0.43746    1.000
    Si2964   Si       0.67700    0.03651    0.47765    1.000
    N2965    N        0.73808    0.04388    0.43033    1.000
    Si2966   Si       0.71670    0.00653    0.42328    1.000
    N2967    N        0.55792    0.04285    0.57348    1.000
    Si2968   Si       0.59802    0.05700    0.58364    1.000
    Si2969   Si       0.52166    0.02394    0.56347    1.000
    N2970    N        0.60969    0.02997    0.61658    1.000
    N2971    N        0.49262    0.05417    0.54814    1.000
    Si2972   Si       0.49036    0.04526    0.50518    1.000
    N2973    N        0.62410    0.05072    0.55037    1.000
    N2974    N        0.69752    0.03590    0.55741    1.000
    Si2975   Si       0.65560    0.02192    0.54765    1.000
    Si2976   Si       0.72790    0.02261    0.52924    1.000
    N2977    N        0.67051    0.06254    0.61715    1.000
    Si2978   Si       0.70456    0.06208    0.59126    1.000
    N2979    N        0.65528    0.01361    0.50564    1.000
    N2980    N        0.74065    0.04717    0.61158    1.000
    Si2981   Si       0.58280    0.06307    0.73714    1.000
    N2982    N        0.50127    0.04481    0.72152    1.000
    Si2983   Si       0.53167    0.05014    0.68876    1.000
    N2984    N        0.53186    0.01198    0.66688    1.000
    N2985    N        0.55990    0.02429    0.74599    1.000
    N2986    N        0.57026    0.06789    0.69438    1.000
    Si2987   Si       0.50270    0.00806    0.63391    1.000
    N2988    N        0.72942    0.02374    0.67907    1.000
    Si2989   Si       0.69048    0.02289    0.69892    1.000
    Si2990   Si       0.64032    0.04244    0.64281    1.000
    N2991    N        0.65811    0.01312    0.66820    1.000
    N2992    N        0.68010    0.05997    0.71979    1.000
    Si2993   Si       0.55035    0.03951    0.85530    1.000
    Si2994   Si       0.51709    0.02621    0.75760    1.000
    N2995    N        0.50505    0.05428    0.79003    1.000
    N2996    N        0.56961    0.05458    0.81850    1.000
    Si2997   Si       0.61191    0.05435    0.80952    1.000
    N2998    N        0.61732    0.05530    0.76524    1.000
    N2999    N        0.68678    0.05887    0.81260    1.000
    Si3000   Si       0.67445    0.01822    0.82479    1.000
    N3001    N        0.62996    0.01761    0.82051    1.000
    N3002    N        0.73196    0.03476    0.76795    1.000
    Si3003   Si       0.72928    0.06257    0.80027    1.000
    N3004    N        0.52409    0.02567    0.96127    1.000
    N3005    N        0.58110    0.03070    0.88762    1.000
    Si3006   Si       0.56634    0.03363    0.95954    1.000
    Si3007   Si       0.60578    0.06459    0.90235    1.000
    N3008    N        0.64828    0.05436    0.89949    1.000
    N3009    N        0.69340    0.06670    0.95451    1.000
    N3010    N        0.73671    0.00915    0.96095    1.000
    Si3011   Si       0.66387    0.01024    0.90023    1.000
    Si3012   Si       0.69667    0.02614    0.96774    1.000
    Si3013   Si       0.56434    0.11101    0.04071    1.000
    N3014    N        0.51982    0.11810    0.04119    1.000
    N3015    N        0.57328    0.07542    0.06473    1.000
    Si3016   Si       0.49310    0.08876    0.02175    1.000
    Si3017   Si       0.56581    0.06951    0.10843    1.000
    N3018    N        0.56854    0.10670    0.99778    1.000
    N3019    N        0.56025    0.11035    0.12149    1.000
    N3020    N        0.68002    0.07942    0.05027    1.000
    N3021    N        0.67262    0.11436    0.10367    1.000
    Si3022   Si       0.71898    0.11951    0.11107    1.000
    N3023    N        0.72138    0.07535    0.11250    1.000
    Si3024   Si       0.68071    0.07201    0.09358    1.000
    Si3025   Si       0.68399    0.12440    0.04731    1.000
    N3026    N        0.68938    0.12667    0.00431    1.000
    N3027    N        0.63813    0.07986    0.99734    1.000
    Si3028   Si       0.53295    0.11073    0.15659    1.000
    N3029    N        0.49575    0.09144    0.14589    1.000
    Si3030   Si       0.55220    0.11135    0.22907    1.000
    Si3031   Si       0.59686    0.08141    0.17842    1.000
    N3032    N        0.55726    0.09488    0.18927    1.000
    Si3033   Si       0.65938    0.12434    0.21067    1.000
    Si3034   Si       0.71720    0.09076    0.21728    1.000
    N3035    N        0.67572    0.08353    0.20502    1.000
    N3036    N        0.62091    0.11582    0.18490    1.000
    N3037    N        0.51662    0.11242    0.30742    1.000
    N3038    N        0.55806    0.07587    0.25525    1.000
    Si3039   Si       0.52941    0.07362    0.28746    1.000
    N3040    N        0.61776    0.11775    0.30651    1.000
    Si3041   Si       0.51393    0.12602    0.34918    1.000
    Si3042   Si       0.63306    0.10096    0.34444    1.000
    N3043    N        0.70667    0.08795    0.29740    1.000
    N3044    N        0.70635    0.08494    0.37011    1.000
    N3045    N        0.54077    0.10251    0.37185    1.000
    N3046    N        0.60423    0.08440    0.37477    1.000
    N3047    N        0.55641    0.08952    0.43014    1.000
    Si3048   Si       0.55778    0.08143    0.47272    1.000
    Si3049   Si       0.57762    0.11103    0.39505    1.000
    N3050    N        0.54641    0.11864    0.49239    1.000
    Si3051   Si       0.53071    0.07116    0.40100    1.000
    Si3052   Si       0.70056    0.12357    0.38912    1.000
    Si3053   Si       0.73946    0.07090    0.39676    1.000
    N3054    N        0.71726    0.10346    0.47221    1.000
    Si3055   Si       0.67411    0.11087    0.46516    1.000
    N3056    N        0.65515    0.07520    0.48018    1.000
    N3057    N        0.59963    0.09861    0.59743    1.000
    N3058    N        0.60621    0.10766    0.51818    1.000
    N3059    N        0.48944    0.10311    0.60273    1.000
    N3060    N        0.71294    0.10356    0.58172    1.000
    Si3061   Si       0.62116    0.06862    0.50957    1.000
    Si3062   Si       0.59926    0.09905    0.68315    1.000
    N3063    N        0.50280    0.07683    0.67079    1.000
    Si3064   Si       0.67008    0.09590    0.64599    1.000
    N3065    N        0.70963    0.08559    0.66344    1.000
    Si3066   Si       0.64730    0.07635    0.74360    1.000
    Si3067   Si       0.70862    0.08834    0.70621    1.000
    N3068    N        0.61692    0.10130    0.72340    1.000
    N3069    N        0.63313    0.08114    0.66291    1.000
    Si3070   Si       0.54062    0.07787    0.79653    1.000
    N3071    N        0.55643    0.09075    0.75855    1.000
    N3072    N        0.52827    0.11878    0.80371    1.000
    Si3073   Si       0.61006    0.12166    0.85235    1.000
    N3074    N        0.53049    0.07657    0.87068    1.000
    Si3075   Si       0.66693    0.09640    0.81109    1.000
    N3076    N        0.62800    0.09051    0.82847    1.000
    N3077    N        0.66415    0.10676    0.76925    1.000
    Si3078   Si       0.72564    0.10224    0.85408    1.000
    N3079    N        0.69000    0.12160    0.83686    1.000
    N3080    N        0.58876    0.09996    0.88377    1.000
    Si3081   Si       0.54636    0.11238    0.88798    1.000
    Si3082   Si       0.59674    0.07836    0.98356    1.000
    N3083    N        0.49872    0.09847    0.97997    1.000
    Si3084   Si       0.53730    0.12289    0.97229    1.000
    N3085    N        0.54310    0.12497    0.92927    1.000
    N3086    N        0.58981    0.06708    0.94315    1.000
    Si3087   Si       0.67895    0.08290    0.91536    1.000
    N3088    N        0.66564    0.11865    0.93647    1.000
    N3089    N        0.71660    0.09541    0.89608    1.000
    Si3090   Si       0.67283    0.09879    0.97698    1.000
    Si3091   Si       0.58018    0.14548    0.10326    1.000
    N3092    N        0.58738    0.14183    0.06041    1.000
    N3093    N        0.55249    0.17992    0.10912    1.000
    Si3094   Si       0.58776    0.17987    0.04033    1.000
    Si3095   Si       0.50357    0.15794    0.04416    1.000
    N3096    N        0.53957    0.18796    0.04262    1.000
    N3097    N        0.65934    0.15626    0.06029    1.000
    Si3098   Si       0.65715    0.15561    0.10361    1.000
    N3099    N        0.73312    0.17654    0.01851    1.000
    N3100    N        0.72227    0.13273    0.06924    1.000
    N3101    N        0.61743    0.14927    0.12369    1.000
    Si3102   Si       0.49792    0.15167    0.20169    1.000
    N3103    N        0.52478    0.15157    0.16761    1.000
    Si3104   Si       0.55060    0.18284    0.15355    1.000
    N3105    N        0.51277    0.12826    0.23517    1.000
    Si3106   Si       0.72409    0.17093    0.22951    1.000
    N3107    N        0.64407    0.14815    0.24634    1.000
    N3108    N        0.65917    0.16513    0.18799    1.000
    N3109    N        0.70463    0.13284    0.23314    1.000
    N3110    N        0.73397    0.17664    0.18634    1.000
    Si3111   Si       0.69475    0.17431    0.16382    1.000
    Si3112   Si       0.61946    0.15678    0.16756    1.000
    N3113    N        0.70694    0.13247    0.15263    1.000
    N3114    N        0.52047    0.16981    0.34895    1.000
    Si3115   Si       0.61346    0.14715    0.27661    1.000
    Si3116   Si       0.56468    0.18208    0.26473    1.000
    N3117    N        0.57670    0.14183    0.25192    1.000
    N3118    N        0.65374    0.13787    0.36122    1.000
    N3119    N        0.70178    0.15941    0.30276    1.000
    Si3120   Si       0.68230    0.16605    0.34155    1.000
    N3121    N        0.71482    0.15646    0.36796    1.000
    Si3122   Si       0.71087    0.12753    0.27707    1.000
    Si3123   Si       0.51841    0.14837    0.47822    1.000
    N3124    N        0.53458    0.17201    0.44558    1.000
    N3125    N        0.59768    0.14613    0.40974    1.000
    Si3126   Si       0.57421    0.17951    0.42788    1.000
    Si3127   Si       0.69352    0.17326    0.49599    1.000
    N3128    N        0.72083    0.17472    0.46178    1.000
    N3129    N        0.66362    0.14243    0.49025    1.000
    Si3130   Si       0.73785    0.13484    0.45166    1.000
    Si3131   Si       0.64126    0.15383    0.40169    1.000
    N3132    N        0.67106    0.12784    0.42236    1.000
    Si3133   Si       0.50978    0.14994    0.55387    1.000
    N3134    N        0.59643    0.16917    0.52089    1.000
    N3135    N        0.51670    0.17175    0.51652    1.000
    N3136    N        0.60247    0.16172    0.60103    1.000
    N3137    N        0.50229    0.17429    0.58888    1.000
    Si3138   Si       0.57074    0.13183    0.52434    1.000
    N3139    N        0.54862    0.13092    0.56161    1.000
    Si3140   Si       0.57051    0.12994    0.59811    1.000
    Si3141   Si       0.49968    0.14242    0.62062    1.000
    Si3142   Si       0.69687    0.13974    0.56481    1.000
    N3143    N        0.71855    0.15417    0.52831    1.000
    Si3144   Si       0.63148    0.14059    0.51955    1.000
    N3145    N        0.65526    0.13269    0.55680    1.000
    N3146    N        0.69174    0.17842    0.58479    1.000
    Si3147   Si       0.63276    0.12915    0.59386    1.000
    N3148    N        0.54152    0.13933    0.63008    1.000
    Si3149   Si       0.55960    0.16335    0.66189    1.000
    N3150    N        0.58905    0.14042    0.68230    1.000
    Si3151   Si       0.60716    0.14565    0.72525    1.000
    N3152    N        0.52702    0.18046    0.68473    1.000
    Si3153   Si       0.49471    0.18424    0.73686    1.000
    Si3154   Si       0.68239    0.17064    0.62770    1.000
    N3155    N        0.64468    0.16792    0.73492    1.000
    N3156    N        0.71957    0.16353    0.64787    1.000
    Si3157   Si       0.71828    0.16281    0.69162    1.000
    N3158    N        0.69492    0.12961    0.71081    1.000
    N3159    N        0.66161    0.13187    0.62613    1.000
    Si3160   Si       0.67546    0.14198    0.74845    1.000
    Si3161   Si       0.54725    0.15180    0.82453    1.000
    N3162    N        0.58897    0.14974    0.82944    1.000
    Si3163   Si       0.53993    0.13117    0.76144    1.000
    N3164    N        0.53145    0.14778    0.86585    1.000
    N3165    N        0.57290    0.15704    0.74770    1.000
    N3166    N        0.50103    0.14306    0.74781    1.000
    Si3167   Si       0.49255    0.16864    0.87206    1.000
    Si3168   Si       0.73341    0.14840    0.80756    1.000
    N3169    N        0.70650    0.16425    0.77301    1.000
    Si3170   Si       0.66947    0.15541    0.85490    1.000
    N3171    N        0.65190    0.17919    0.82245    1.000
    Si3172   Si       0.53454    0.16796    0.93233    1.000
    N3173    N        0.52905    0.16621    0.97542    1.000
    N3174    N        0.49613    0.17914    0.91562    1.000
    Si3175   Si       0.60769    0.18217    0.90007    1.000
    N3176    N        0.59437    0.17967    0.99981    1.000
    N3177    N        0.69179    0.17299    0.88863    1.000
    N3178    N        0.69885    0.17883    0.95811    1.000
    Si3179   Si       0.72022    0.15190    0.98615    1.000
    Si3180   Si       0.67346    0.16066    0.92708    1.000
    N3181    N        0.63421    0.18095    0.93382    1.000
    N3182    N        0.63153    0.15088    0.87715    1.000
    Si3183   Si       0.52535    0.20049    0.08272    1.000
    N3184    N        0.50986    0.24129    0.08232    1.000
    Si3185   Si       0.53002    0.20196    0.00252    1.000
    N3186    N        0.49208    0.21913    0.01521    1.000
    N3187    N        0.61549    0.21008    0.05881    1.000
    Si3188   Si       0.65622    0.19734    0.04431    1.000
    Si3189   Si       0.68967    0.22557    0.10464    1.000
    Si3190   Si       0.72725    0.21587    0.03709    1.000
    N3191    N        0.69319    0.21365    0.06174    1.000
    N3192    N        0.65692    0.20160    0.00179    1.000
    N3193    N        0.71534    0.24137    0.00284    1.000
    N3194    N        0.49477    0.19461    0.20782    1.000
    N3195    N        0.53139    0.22216    0.15708    1.000
    Si3196   Si       0.59120    0.22107    0.19940    1.000
    Si3197   Si       0.51873    0.20971    0.24108    1.000
    N3198    N        0.56196    0.20749    0.22933    1.000
    Si3199   Si       0.48961    0.22183    0.17286    1.000
    N3200    N        0.58883    0.18668    0.17175    1.000
    N3201    N        0.69309    0.20061    0.23560    1.000
    N3202    N        0.62747    0.22060    0.22277    1.000
    Si3203   Si       0.70747    0.23914    0.24842    1.000
    N3204    N        0.67916    0.18899    0.12564    1.000
    Si3205   Si       0.65415    0.18589    0.22501    1.000
    N3206    N        0.51573    0.23210    0.34323    1.000
    Si3207   Si       0.50561    0.19758    0.31947    1.000
    Si3208   Si       0.60925    0.22572    0.30747    1.000
    N3209    N        0.52456    0.18960    0.27983    1.000
    N3210    N        0.61426    0.23509    0.35079    1.000
    N3211    N        0.59981    0.18437    0.29154    1.000
    N3212    N        0.67380    0.20846    0.34164    1.000
    N3213    N        0.71328    0.22901    0.28899    1.000
    Si3214   Si       0.73374    0.19117    0.29873    1.000
    Si3215   Si       0.67987    0.24097    0.31160    1.000
    N3216    N        0.64460    0.24114    0.28609    1.000
    N3217    N        0.48993    0.21509    0.40809    1.000
    Si3218   Si       0.52009    0.20470    0.37819    1.000
    N3219    N        0.59750    0.19794    0.45935    1.000
    N3220    N        0.56188    0.20782    0.39502    1.000
    Si3221   Si       0.50749    0.20449    0.44539    1.000
    N3222    N        0.49081    0.22026    0.48064    1.000
    Si3223   Si       0.58366    0.24387    0.38334    1.000
    N3224    N        0.73026    0.24257    0.44468    1.000
    Si3225   Si       0.65064    0.22547    0.37342    1.000
    N3226    N        0.66274    0.23619    0.45796    1.000
    Si3227   Si       0.62655    0.22057    0.43656    1.000
    N3228    N        0.64261    0.19667    0.40370    1.000
    Si3229   Si       0.51565    0.21537    0.52094    1.000
    N3230    N        0.55588    0.22743    0.51787    1.000
    Si3231   Si       0.49961    0.21692    0.59397    1.000
    N3232    N        0.61094    0.23501    0.60376    1.000
    N3233    N        0.53950    0.23680    0.60412    1.000
    Si3234   Si       0.58955    0.20544    0.50083    1.000
    N3235    N        0.61770    0.23925    0.50907    1.000
    Si3236   Si       0.69400    0.21339    0.55883    1.000
    N3237    N        0.67368    0.20405    0.52058    1.000
    Si3238   Si       0.65873    0.24015    0.50220    1.000
    N3239    N        0.73608    0.21531    0.54427    1.000
    Si3240   Si       0.60754    0.19893    0.62558    1.000
    N3241    N        0.58127    0.20111    0.66020    1.000
    Si3242   Si       0.55502    0.21322    0.69911    1.000
    N3243    N        0.58945    0.21703    0.72500    1.000
    N3244    N        0.53031    0.21197    0.74026    1.000
    N3245    N        0.70459    0.19890    0.70764    1.000
    Si3246   Si       0.66463    0.20631    0.72534    1.000
    N3247    N        0.65133    0.19975    0.63576    1.000
    Si3248   Si       0.73227    0.23261    0.71098    1.000
    N3249    N        0.65254    0.24447    0.70210    1.000
    N3250    N        0.60012    0.21327    0.79571    1.000
    Si3251   Si       0.50543    0.20951    0.80490    1.000
    Si3252   Si       0.56993    0.19810    0.76246    1.000
    N3253    N        0.59870    0.21091    0.86690    1.000
    Si3254   Si       0.61024    0.18872    0.83010    1.000
    Si3255   Si       0.49625    0.23948    0.86760    1.000
    N3256    N        0.49268    0.20218    0.84565    1.000
    N3257    N        0.54116    0.18574    0.79872    1.000
    N3258    N        0.66680    0.21860    0.76902    1.000
    Si3259   Si       0.63522    0.23968    0.78875    1.000
    Si3260   Si       0.68574    0.19355    0.79833    1.000
    N3261    N        0.71420    0.19056    0.82944    1.000
    Si3262   Si       0.71707    0.20303    0.87127    1.000
    N3263    N        0.54753    0.23445    0.97795    1.000
    Si3264   Si       0.57269    0.23101    0.94405    1.000
    N3265    N        0.56974    0.19181    0.92339    1.000
    N3266    N        0.61290    0.23813    0.96016    1.000
    N3267    N        0.49392    0.24461    0.91085    1.000
    Si3268   Si       0.68965    0.21667    0.97780    1.000
    Si3269   Si       0.62292    0.19733    0.97561    1.000
    N3270    N        0.70206    0.24393    0.87962    1.000
    N3271    N        0.67876    0.24459    0.94587    1.000
    N3272    N        0.53722    0.27145    0.03279    1.000
    Si3273   Si       0.56155    0.28017    0.06751    1.000
    N3274    N        0.57650    0.25617    0.10447    1.000
    N3275    N        0.60571    0.28043    0.05384    1.000
    Si3276   Si       0.49418    0.25417    0.04094    1.000
    Si3277   Si       0.61444    0.24812    0.08256    1.000
    Si3278   Si       0.69832    0.28399    0.00656    1.000
    N3279    N        0.72639    0.24894    0.11749    1.000
    Si3280   Si       0.61905    0.30236    0.01850    1.000
    N3281    N        0.65293    0.24830    0.09978    1.000
    N3282    N        0.53369    0.29192    0.14842    1.000
    Si3283   Si       0.55702    0.25608    0.14432    1.000
    N3284    N        0.58640    0.25768    0.17654    1.000
    Si3285   Si       0.60899    0.29330    0.18624    1.000
    Si3286   Si       0.49221    0.29140    0.16633    1.000
    N3287    N        0.61931    0.28894    0.22853    1.000
    Si3288   Si       0.64223    0.25587    0.24350    1.000
    N3289    N        0.64619    0.30350    0.16659    1.000
    N3290    N        0.68144    0.26761    0.23152    1.000
    N3291    N        0.71288    0.28588    0.17642    1.000
    Si3292   Si       0.72320    0.28874    0.13581    1.000
    Si3293   Si       0.67515    0.29762    0.19974    1.000
    Si3294   Si       0.52375    0.27456    0.34732    1.000
    Si3295   Si       0.54587    0.27266    0.27915    1.000
    N3296    N        0.52326    0.29738    0.31141    1.000
    N3297    N        0.56204    0.27799    0.36915    1.000
    N3298    N        0.51854    0.25216    0.25368    1.000
    N3299    N        0.57698    0.24933    0.29525    1.000
    N3300    N        0.69052    0.27875    0.32775    1.000
    Si3301   Si       0.69818    0.28392    0.37004    1.000
    N3302    N        0.49985    0.29563    0.37575    1.000
    Si3303   Si       0.59096    0.28713    0.44651    1.000
    N3304    N        0.60531    0.25522    0.42138    1.000
    N3305    N        0.57769    0.29002    0.48991    1.000
    N3306    N        0.54851    0.29519    0.43115    1.000
    N3307    N        0.50341    0.29939    0.48896    1.000
    Si3308   Si       0.70975    0.29829    0.48957    1.000
    N3309    N        0.73754    0.27083    0.37717    1.000
    N3310    N        0.69515    0.29843    0.44727    1.000
    N3311    N        0.67494    0.25535    0.39295    1.000
    Si3312   Si       0.69054    0.25666    0.43386    1.000
    N3313    N        0.58369    0.27996    0.56208    1.000
    Si3314   Si       0.58271    0.26263    0.52352    1.000
    Si3315   Si       0.57522    0.25929    0.59949    1.000
    Si3316   Si       0.67944    0.28433    0.55734    1.000
    N3317    N        0.68491    0.27228    0.51437    1.000
    N3318    N        0.72868    0.28404    0.56670    1.000
    N3319    N        0.67247    0.24715    0.57830    1.000
    Si3320   Si       0.65515    0.24263    0.61900    1.000
    N3321    N        0.59285    0.28186    0.69831    1.000
    Si3322   Si       0.55129    0.28498    0.70249    1.000
    N3323    N        0.57131    0.28831    0.63248    1.000
    Si3324   Si       0.52245    0.25337    0.64111    1.000
    N3325    N        0.50677    0.29227    0.62726    1.000
    Si3326   Si       0.60830    0.29427    0.65837    1.000
    N3327    N        0.53563    0.24876    0.68274    1.000
    N3328    N        0.54225    0.28217    0.74347    1.000
    Si3329   Si       0.61488    0.25291    0.72191    1.000
    Si3330   Si       0.67602    0.27140    0.67447    1.000
    N3331    N        0.69811    0.24820    0.64331    1.000
    N3332    N        0.64296    0.27624    0.64375    1.000
    N3333    N        0.71220    0.26987    0.71471    1.000
    Si3334   Si       0.51981    0.27955    0.82502    1.000
    N3335    N        0.53714    0.25106    0.85357    1.000
    N3336    N        0.60063    0.28360    0.86515    1.000
    Si3337   Si       0.51375    0.25164    0.75065    1.000
    N3338    N        0.51184    0.25117    0.79283    1.000
    N3339    N        0.61811    0.26932    0.76180    1.000
    N3340    N        0.72192    0.27269    0.81680    1.000
    N3341    N        0.65280    0.25930    0.82241    1.000
    Si3342   Si       0.69052    0.26756    0.84448    1.000
    Si3343   Si       0.63484    0.29506    0.84355    1.000
    N3344    N        0.67309    0.30244    0.86303    1.000
    N3345    N        0.51529    0.28763    0.96383    1.000
    Si3346   Si       0.52204    0.27845    0.92181    1.000
    N3347    N        0.56254    0.26122    0.91534    1.000
    Si3348   Si       0.54771    0.27586    0.99237    1.000
    Si3349   Si       0.57705    0.24862    0.87354    1.000
    N3350    N        0.58247    0.30202    0.99134    1.000
    Si3351   Si       0.64513    0.26899    0.95689    1.000
    N3352    N        0.65571    0.28453    0.99809    1.000
    Si3353   Si       0.70905    0.25897    0.91883    1.000
    N3354    N        0.63088    0.29665    0.92757    1.000
    N3355    N        0.71198    0.30360    0.91836    1.000
    N3356    N        0.50974    0.34062    0.00949    1.000
    Si3357   Si       0.51317    0.33442    0.05310    1.000
    N3358    N        0.54335    0.31674    0.08134    1.000
    N3359    N        0.63325    0.34404    0.02837    1.000
    Si3360   Si       0.70772    0.33595    0.07330    1.000
    N3361    N        0.63018    0.34155    0.10882    1.000
    N3362    N        0.69482    0.31554    0.11163    1.000
    N3363    N        0.71473    0.30954    0.03881    1.000
    Si3364   Si       0.63897    0.35852    0.06856    1.000
    Si3365   Si       0.53869    0.32809    0.12388    1.000
    Si3366   Si       0.59236    0.32255    0.23739    1.000
    N3367    N        0.58171    0.32791    0.19677    1.000
    N3368    N        0.49912    0.34665    0.12920    1.000
    N3369    N        0.56723    0.35709    0.13631    1.000
    Si3370   Si       0.49286    0.36129    0.16795    1.000
    N3371    N        0.67918    0.33794    0.21767    1.000
    Si3372   Si       0.66204    0.33058    0.13650    1.000
    Si3373   Si       0.71883    0.34087    0.23715    1.000
    Si3374   Si       0.54643    0.33237    0.29784    1.000
    N3375    N        0.58121    0.34395    0.31901    1.000
    N3376    N        0.51053    0.35553    0.29088    1.000
    N3377    N        0.56069    0.31044    0.26286    1.000
    N3378    N        0.61037    0.35478    0.25903    1.000
    Si3379   Si       0.62019    0.35565    0.30047    1.000
    Si3380   Si       0.69094    0.32209    0.31383    1.000
    N3381    N        0.71322    0.32871    0.27768    1.000
    N3382    N        0.65210    0.33541    0.32276    1.000
    N3383    N        0.72446    0.34160    0.33526    1.000
    Si3384   Si       0.65091    0.34845    0.36453    1.000
    N3385    N        0.54247    0.35130    0.38183    1.000
    N3386    N        0.55328    0.34932    0.47716    1.000
    Si3387   Si       0.53825    0.30966    0.39257    1.000
    N3388    N        0.61143    0.35401    0.38136    1.000
    N3389    N        0.61000    0.32418    0.44905    1.000
    Si3390   Si       0.54123    0.30669    0.47246    1.000
    Si3391   Si       0.59629    0.33649    0.49166    1.000
    Si3392   Si       0.61267    0.35929    0.42521    1.000
    N3393    N        0.68270    0.32334    0.38233    1.000
    Si3394   Si       0.68649    0.33429    0.42457    1.000
    N3395    N        0.72216    0.35857    0.41493    1.000
    Si3396   Si       0.60345    0.31888    0.55922    1.000
    N3397    N        0.57639    0.34107    0.53374    1.000
    N3398    N        0.61349    0.34629    0.59115    1.000
    N3399    N        0.68113    0.31151    0.59477    1.000
    Si3400   Si       0.65695    0.34726    0.59292    1.000
    Si3401   Si       0.66221    0.34671    0.52182    1.000
    N3402    N        0.64289    0.31266    0.54227    1.000
    Si3403   Si       0.72250    0.31181    0.59970    1.000
    N3404    N        0.73572    0.35344    0.59904    1.000
    N3405    N        0.70090    0.33929    0.50309    1.000
    Si3406   Si       0.51052    0.34607    0.71209    1.000
    Si3407   Si       0.54048    0.31991    0.64027    1.000
    N3408    N        0.53258    0.31919    0.68496    1.000
    N3409    N        0.61076    0.33868    0.65941    1.000
    N3410    N        0.55057    0.35802    0.63123    1.000
    Si3411   Si       0.68199    0.35155    0.66407    1.000
    N3412    N        0.72707    0.33924    0.73096    1.000
    Si3413   Si       0.69697    0.30960    0.72623    1.000
    N3414    N        0.68142    0.31417    0.68400    1.000
    Si3415   Si       0.54999    0.31770    0.76734    1.000
    N3416    N        0.53001    0.31735    0.80702    1.000
    N3417    N        0.59095    0.33466    0.76209    1.000
    N3418    N        0.52491    0.35174    0.75231    1.000
    Si3419   Si       0.49820    0.34436    0.78908    1.000
    N3420    N        0.63026    0.32581    0.81312    1.000
    Si3421   Si       0.66677    0.35067    0.79015    1.000
    N3422    N        0.66674    0.31874    0.75691    1.000
    N3423    N        0.70902    0.35125    0.79915    1.000
    Si3424   Si       0.62507    0.31035    0.77223    1.000
    Si3425   Si       0.74099    0.34733    0.77171    1.000
    N3426    N        0.72340    0.34850    0.86986    1.000
    Si3427   Si       0.62575    0.36141    0.84277    1.000
    N3428    N        0.56954    0.33002    0.92489    1.000
    Si3429   Si       0.58261    0.33735    0.96551    1.000
    Si3430   Si       0.53193    0.34587    0.90995    1.000
    N3431    N        0.50634    0.31190    0.89811    1.000
    Si3432   Si       0.59921    0.30859    0.90108    1.000
    N3433    N        0.73223    0.35957    0.96128    1.000
    N3434    N        0.61879    0.34550    0.88328    1.000
    Si3435   Si       0.69051    0.33111    0.89218    1.000
    N3436    N        0.62100    0.35686    0.96171    1.000
    N3437    N        0.67338    0.36365    0.91612    1.000
    N3438    N        0.60536    0.38727    0.07438    1.000
    Si3439   Si       0.60066    0.37463    0.11684    1.000
    N3440    N        0.50018    0.37313    0.07078    1.000
    Si3441   Si       0.50145    0.41421    0.08262    1.000
    N3442    N        0.55579    0.42152    0.02540    1.000
    Si3443   Si       0.57770    0.41996    0.06147    1.000
    N3444    N        0.61664    0.41429    0.00073    1.000
    N3445    N        0.73551    0.40059    0.01656    1.000
    Si3446   Si       0.69060    0.41202    0.07881    1.000
    N3447    N        0.68082    0.36908    0.07334    1.000
    Si3448   Si       0.69895    0.42188    0.00775    1.000
    N3449    N        0.73299    0.42580    0.07918    1.000
    N3450    N        0.59345    0.39635    0.19967    1.000
    N3451    N        0.52810    0.38297    0.18481    1.000
    Si3452   Si       0.56789    0.36647    0.18074    1.000
    Si3453   Si       0.61270    0.39467    0.24065    1.000
    Si3454   Si       0.67893    0.38425    0.20647    1.000
    N3455    N        0.67264    0.36688    0.15767    1.000
    N3456    N        0.72398    0.38057    0.21913    1.000
    N3457    N        0.61878    0.40493    0.14044    1.000
    N3458    N        0.65686    0.40096    0.24110    1.000
    Si3459   Si       0.66147    0.40680    0.14561    1.000
    N3460    N        0.57361    0.40618    0.34630    1.000
    Si3461   Si       0.57670    0.36430    0.35877    1.000
    N3462    N        0.58644    0.41998    0.26710    1.000
    N3463    N        0.50993    0.41611    0.37096    1.000
    N3464    N        0.63059    0.39755    0.31251    1.000
    N3465    N        0.69649    0.40287    0.30003    1.000
    Si3466   Si       0.66637    0.40949    0.33157    1.000
    N3467    N        0.67451    0.38522    0.36873    1.000
    Si3468   Si       0.71357    0.36329    0.37140    1.000
    Si3469   Si       0.73775    0.40484    0.31489    1.000
    N3470    N        0.73843    0.40095    0.36290    1.000
    Si3471   Si       0.51096    0.38063    0.39564    1.000
    N3472    N        0.58840    0.39332    0.43983    1.000
    N3473    N        0.51800    0.39508    0.43621    1.000
    Si3474   Si       0.55118    0.39013    0.46240    1.000
    Si3475   Si       0.73526    0.39853    0.43026    1.000
    Si3476   Si       0.63531    0.40577    0.49193    1.000
    Si3477   Si       0.66100    0.40603    0.40895    1.000
    N3478    N        0.65572    0.36557    0.42546    1.000
    N3479    N        0.72054    0.40377    0.47314    1.000
    Si3480   Si       0.73189    0.36856    0.49571    1.000
    Si3481   Si       0.49985    0.40899    0.52324    1.000
    N3482    N        0.54044    0.40265    0.50643    1.000
    N3483    N        0.50109    0.36544    0.53566    1.000
    N3484    N        0.49461    0.40118    0.61664    1.000
    Si3485   Si       0.54002    0.35827    0.52084    1.000
    Si3486   Si       0.72106    0.38003    0.56919    1.000
    N3487    N        0.67493    0.37061    0.56005    1.000
    Si3488   Si       0.67104    0.41394    0.56072    1.000
    N3489    N        0.62913    0.36395    0.49867    1.000
    N3490    N        0.71372    0.42351    0.57029    1.000
    N3491    N        0.59500    0.38303    0.71518    1.000
    Si3492   Si       0.52376    0.38835    0.64572    1.000
    N3493    N        0.50781    0.38118    0.68654    1.000
    N3494    N        0.61008    0.40130    0.64752    1.000
    Si3495   Si       0.59371    0.36495    0.62697    1.000
    N3496    N        0.71862    0.41213    0.72618    1.000
    N3497    N        0.66869    0.37147    0.62834    1.000
    Si3498   Si       0.65143    0.41161    0.63394    1.000
    Si3499   Si       0.68189    0.41786    0.70214    1.000
    Si3500   Si       0.62106    0.37566    0.68166    1.000
    Si3501   Si       0.73832    0.37691    0.70660    1.000
    N3502    N        0.72151    0.37439    0.66704    1.000
    N3503    N        0.66264    0.37999    0.69356    1.000
    N3504    N        0.59791    0.39364    0.83988    1.000
    N3505    N        0.51215    0.38176    0.81100    1.000
    Si3506   Si       0.51420    0.39442    0.85284    1.000
    Si3507   Si       0.53039    0.39230    0.77272    1.000
    N3508    N        0.57192    0.40015    0.77651    1.000
    Si3509   Si       0.60207    0.37631    0.75497    1.000
    N3510    N        0.50982    0.42090    0.74629    1.000
    N3511    N        0.73093    0.41202    0.84887    1.000
    N3512    N        0.64389    0.38164    0.76980    1.000
    Si3513   Si       0.70804    0.37528    0.83916    1.000
    N3514    N        0.66585    0.37517    0.83815    1.000
    N3515    N        0.54309    0.37958    0.88269    1.000
    Si3516   Si       0.58195    0.40056    0.88146    1.000
    N3517    N        0.50475    0.41031    0.98675    1.000
    N3518    N        0.56257    0.37199    0.98251    1.000
    Si3519   Si       0.57560    0.41364    0.98778    1.000
    Si3520   Si       0.51931    0.37065    0.97955    1.000
    N3521    N        0.61360    0.40586    0.91355    1.000
    N3522    N        0.50563    0.36204    0.93900    1.000
    Si3523   Si       0.63690    0.37606    0.99748    1.000
    N3524    N        0.67673    0.39261    0.98106    1.000
    Si3525   Si       0.69712    0.38273    0.94629    1.000
    Si3526   Si       0.63055    0.36715    0.92042    1.000
    Si3527   Si       0.73043    0.42343    0.89183    1.000
    Si3528   Si       0.51548    0.43685    0.01919    1.000
    N3529    N        0.60245    0.45673    0.05598    1.000
    N3530    N        0.54456    0.42600    0.09126    1.000
    N3531    N        0.51084    0.48166    0.11183    1.000
    Si3532   Si       0.54647    0.45890    0.11973    1.000
    Si3533   Si       0.63596    0.44548    0.02863    1.000
    N3534    N        0.67619    0.43403    0.11419    1.000
    N3535    N        0.67154    0.42552    0.04160    1.000
    N3536    N        0.64618    0.47854    0.00446    1.000
    Si3537   Si       0.69557    0.47243    0.11879    1.000
    N3538    N        0.55608    0.43896    0.15813    1.000
    N3539    N        0.49162    0.43956    0.19590    1.000
    Si3540   Si       0.59734    0.42854    0.16943    1.000
    Si3541   Si       0.53341    0.42536    0.19316    1.000
    N3542    N        0.55418    0.45512    0.22197    1.000
    N3543    N        0.67291    0.42457    0.18417    1.000
    N3544    N        0.73772    0.47026    0.12678    1.000
    Si3545   Si       0.66131    0.46502    0.18547    1.000
    N3546    N        0.62053    0.46509    0.17192    1.000
    Si3547   Si       0.55009    0.44459    0.26357    1.000
    N3548    N        0.55379    0.45094    0.30812    1.000
    Si3549   Si       0.54199    0.43454    0.35021    1.000
    N3550    N        0.56276    0.47073    0.36622    1.000
    N3551    N        0.50918    0.42423    0.26565    1.000
    Si3552   Si       0.59619    0.42529    0.31182    1.000
    N3553    N        0.61374    0.46347    0.32962    1.000
    Si3554   Si       0.73974    0.46975    0.27670    1.000
    N3555    N        0.68045    0.44612    0.34770    1.000
    N3556    N        0.66237    0.46039    0.28180    1.000
    Si3557   Si       0.65554    0.47467    0.32223    1.000
    Si3558   Si       0.68161    0.42620    0.26447    1.000
    N3559    N        0.71819    0.44306    0.24684    1.000
    Si3560   Si       0.71230    0.43718    0.37434    1.000
    Si3561   Si       0.60786    0.46325    0.37424    1.000
    N3562    N        0.59757    0.43032    0.48763    1.000
    Si3563   Si       0.60868    0.43197    0.44228    1.000
    N3564    N        0.59714    0.47509    0.44228    1.000
    N3565    N        0.49459    0.47997    0.38929    1.000
    N3566    N        0.65210    0.42459    0.45578    1.000
    N3567    N        0.69318    0.47299    0.47845    1.000
    N3568    N        0.62605    0.43136    0.39754    1.000
    N3569    N        0.70316    0.42654    0.41694    1.000
    Si3570   Si       0.69411    0.43547    0.45887    1.000
    N3571    N        0.50435    0.43925    0.55162    1.000
    Si3572   Si       0.56941    0.43011    0.52109    1.000
    N3573    N        0.50766    0.46891    0.61759    1.000
    N3574    N        0.55509    0.47025    0.51264    1.000
    Si3575   Si       0.60877    0.44909    0.58450    1.000
    N3576    N        0.58658    0.42268    0.55987    1.000
    Si3577   Si       0.49190    0.43594    0.59318    1.000
    Si3578   Si       0.51837    0.47834    0.53510    1.000
    N3579    N        0.66267    0.42533    0.51946    1.000
    Si3580   Si       0.66706    0.46641    0.51298    1.000
    Si3581   Si       0.71923    0.46622    0.57582    1.000
    N3582    N        0.64596    0.42629    0.59181    1.000
    N3583    N        0.72445    0.46671    0.62096    1.000
    N3584    N        0.59521    0.46383    0.62536    1.000
    Si3585   Si       0.58625    0.43643    0.65732    1.000
    Si3586   Si       0.51752    0.45973    0.65815    1.000
    N3587    N        0.59912    0.45984    0.69121    1.000
    N3588    N        0.54391    0.42539    0.65459    1.000
    Si3589   Si       0.64261    0.46298    0.69710    1.000
    Si3590   Si       0.69138    0.47312    0.64712    1.000
    N3591    N        0.66842    0.44086    0.66474    1.000
    N3592    N        0.65527    0.43880    0.72995    1.000
    N3593    N        0.57374    0.46323    0.81400    1.000
    Si3594   Si       0.55514    0.46393    0.85498    1.000
    N3595    N        0.51994    0.43844    0.84980    1.000
    Si3596   Si       0.51294    0.46314    0.75475    1.000
    Si3597   Si       0.49417    0.46212    0.82429    1.000
    Si3598   Si       0.59005    0.42291    0.80822    1.000
    N3599    N        0.62655    0.43992    0.79417    1.000
    N3600    N        0.69321    0.43500    0.78639    1.000
    Si3601   Si       0.70401    0.47635    0.79879    1.000
    Si3602   Si       0.65597    0.42206    0.77064    1.000
    Si3603   Si       0.72767    0.42175    0.76717    1.000
    N3604    N        0.72642    0.48394    0.83561    1.000
    N3605    N        0.57833    0.44488    0.88407    1.000
    Si3606   Si       0.59568    0.44447    0.92344    1.000
    Si3607   Si       0.52810    0.46567    0.95335    1.000
    N3608    N        0.56420    0.43884    0.95328    1.000
    N3609    N        0.52010    0.47308    0.99723    1.000
    N3610    N        0.73814    0.46624    0.90007    1.000
    N3611    N        0.71637    0.41896    0.93424    1.000
    Si3612   Si       0.72531    0.46042    0.94566    1.000
    N3613    N        0.71617    0.45995    0.99448    1.000
    N3614    N        0.54395    0.50156    0.05575    1.000
    Si3615   Si       0.51548    0.51477    0.08623    1.000
    Si3616   Si       0.54459    0.50548    0.01140    1.000
    Si3617   Si       0.58702    0.49499    0.06953    1.000
    N3618    N        0.61029    0.52647    0.04986    1.000
    N3619    N        0.58029    0.48566    0.11451    1.000
    Si3620   Si       0.61856    0.51089    0.00873    1.000
    N3621    N        0.68644    0.50865    0.09568    1.000
    Si3622   Si       0.70862    0.52274    0.05969    1.000
    N3623    N        0.69463    0.52426    0.01668    1.000
    N3624    N        0.73644    0.48781    0.05382    1.000
    N3625    N        0.56312    0.53245    0.23899    1.000
    N3626    N        0.57441    0.51700    0.18008    1.000
    N3627    N        0.51023    0.51215    0.20172    1.000
    Si3628   Si       0.55008    0.49853    0.21325    1.000
    Si3629   Si       0.60106    0.49753    0.15069    1.000
    N3630    N        0.71759    0.53933    0.22977    1.000
    N3631    N        0.67277    0.48955    0.21791    1.000
    N3632    N        0.67990    0.49064    0.15545    1.000
    Si3633   Si       0.67129    0.53037    0.13505    1.000
    N3634    N        0.62527    0.53310    0.13930    1.000
    Si3635   Si       0.70139    0.51703    0.19284    1.000
    N3636    N        0.57628    0.52428    0.30949    1.000
    Si3637   Si       0.54417    0.52754    0.27770    1.000
    N3638    N        0.52197    0.49008    0.27026    1.000
    Si3639   Si       0.57442    0.48487    0.32452    1.000
    N3640    N        0.52020    0.52985    0.35161    1.000
    Si3641   Si       0.67589    0.49620    0.26060    1.000
    N3642    N        0.71094    0.50068    0.28976    1.000
    N3643    N        0.66580    0.51606    0.33499    1.000
    Si3644   Si       0.70468    0.53131    0.31942    1.000
    N3645    N        0.65801    0.53705    0.26370    1.000
    Si3646   Si       0.64257    0.53519    0.36684    1.000
    N3647    N        0.73067    0.53594    0.35379    1.000
    Si3648   Si       0.59651    0.51277    0.42044    1.000
    N3649    N        0.55578    0.52281    0.40879    1.000
    Si3650   Si       0.53228    0.49991    0.37931    1.000
    Si3651   Si       0.59176    0.47791    0.48624    1.000
    N3652    N        0.49116    0.53858    0.43023    1.000
    N3653    N        0.58693    0.52569    0.49462    1.000
    N3654    N        0.62076    0.50382    0.38541    1.000
    N3655    N        0.72511    0.51498    0.42116    1.000
    Si3656   Si       0.70980    0.50880    0.46258    1.000
    N3657    N        0.51926    0.51304    0.56313    1.000
    Si3658   Si       0.49731    0.50943    0.60175    1.000
    Si3659   Si       0.60411    0.51738    0.53444    1.000
    N3660    N        0.60671    0.49195    0.57262    1.000
    Si3661   Si       0.66409    0.54206    0.62150    1.000
    Si3662   Si       0.61752    0.49899    0.61459    1.000
    Si3663   Si       0.67953    0.52420    0.55226    1.000
    N3664    N        0.62855    0.48366    0.51035    1.000
    N3665    N        0.70679    0.53314    0.52000    1.000
    N3666    N        0.68390    0.48049    0.55277    1.000
    Si3667   Si       0.52039    0.52818    0.66448    1.000
    N3668    N        0.58990    0.53065    0.71032    1.000
    N3669    N        0.54243    0.49229    0.67244    1.000
    Si3670   Si       0.57118    0.49172    0.70628    1.000
    N3671    N        0.55147    0.47791    0.74192    1.000
    Si3672   Si       0.62360    0.52597    0.73897    1.000
    N3673    N        0.65114    0.50550    0.71051    1.000
    N3674    N        0.65988    0.49654    0.62572    1.000
    Si3675   Si       0.68305    0.52947    0.69343    1.000
    N3676    N        0.71103    0.50102    0.67438    1.000
    Si3677   Si       0.50646    0.52478    0.81001    1.000
    Si3678   Si       0.57168    0.52669    0.84473    1.000
    Si3679   Si       0.56298    0.49242    0.78251    1.000
    N3680    N        0.54263    0.50420    0.86700    1.000
    N3681    N        0.55182    0.53508    0.80537    1.000
    N3682    N        0.60602    0.50254    0.77095    1.000
    N3683    N        0.61017    0.50872    0.84032    1.000
    N3684    N        0.51708    0.48236    0.79360    1.000
    Si3685   Si       0.65192    0.51449    0.84871    1.000
    N3686    N        0.70795    0.50313    0.76501    1.000
    N3687    N        0.66477    0.49137    0.81387    1.000
    Si3688   Si       0.62304    0.48205    0.80657    1.000
    Si3689   Si       0.58626    0.50900    0.94839    1.000
    N3690    N        0.54468    0.50067    0.93369    1.000
    Si3691   Si       0.52092    0.51701    0.90182    1.000
    N3692    N        0.58162    0.50434    0.99035    1.000
    Si3693   Si       0.71515    0.49446    0.87543    1.000
    Si3694   Si       0.65682    0.49676    0.92065    1.000
    N3695    N        0.68873    0.48780    0.94800    1.000
    N3696    N        0.67142    0.49099    0.88106    1.000
    Si3697   Si       0.68426    0.49147    0.99154    1.000
    N3698    N        0.71854    0.53757    0.87900    1.000
    N3699    N        0.61745    0.48268    0.93023    1.000
    N3700    N        0.51393    0.58243    0.04916    1.000
    Si3701   Si       0.54150    0.58076    0.01245    1.000
    N3702    N        0.52376    0.54897    0.10978    1.000
    Si3703   Si       0.50891    0.58491    0.09133    1.000
    N3704    N        0.58339    0.58793    0.02138    1.000
    N3705    N        0.59664    0.58865    0.08887    1.000
    N3706    N        0.52466    0.54252    0.00360    1.000
    Si3707   Si       0.49090    0.54903    0.02974    1.000
    Si3708   Si       0.61046    0.56981    0.05118    1.000
    Si3709   Si       0.67880    0.59102    0.08077    1.000
    N3710    N        0.65208    0.58184    0.04505    1.000
    N3711    N        0.71247    0.56557    0.06775    1.000
    Si3712   Si       0.67054    0.56169    0.01064    1.000
    N3713    N        0.66319    0.57702    0.11863    1.000
    Si3714   Si       0.50123    0.55632    0.19243    1.000
    Si3715   Si       0.57347    0.55365    0.20098    1.000
    N3716    N        0.53903    0.57933    0.19329    1.000
    N3717    N        0.61141    0.57105    0.21230    1.000
    Si3718   Si       0.61903    0.57534    0.12518    1.000
    Si3719   Si       0.68115    0.59263    0.15596    1.000
    N3720    N        0.68958    0.55087    0.16936    1.000
    N3721    N        0.66496    0.59690    0.24502    1.000
    Si3722   Si       0.51635    0.56819    0.33244    1.000
    Si3723   Si       0.59071    0.56464    0.31581    1.000
    N3724    N        0.51157    0.55315    0.29042    1.000
    N3725    N        0.60659    0.58621    0.28338    1.000
    N3726    N        0.55531    0.59059    0.32921    1.000
    N3727    N        0.61783    0.56863    0.35091    1.000
    N3728    N        0.71009    0.56864    0.29539    1.000
    Si3729   Si       0.69401    0.56416    0.25569    1.000
    Si3730   Si       0.63192    0.56852    0.25007    1.000
    Si3731   Si       0.52987    0.55668    0.42280    1.000
    N3732    N        0.54995    0.57337    0.45696    1.000
    Si3733   Si       0.58846    0.56331    0.47436    1.000
    Si3734   Si       0.52054    0.59006    0.48474    1.000
    N3735    N        0.52081    0.59090    0.39813    1.000
    N3736    N        0.61331    0.54839    0.44047    1.000
    N3737    N        0.67121    0.55374    0.39334    1.000
    N3738    N        0.73910    0.58556    0.40312    1.000
    N3739    N        0.73801    0.58134    0.48264    1.000
    Si3740   Si       0.65459    0.56251    0.43516    1.000
    Si3741   Si       0.71409    0.55016    0.39413    1.000
    N3742    N        0.68161    0.54598    0.46202    1.000
    Si3743   Si       0.69678    0.56849    0.49564    1.000
    N3744    N        0.51330    0.55680    0.51064    1.000
    Si3745   Si       0.59461    0.57001    0.58819    1.000
    N3746    N        0.51796    0.58901    0.56863    1.000
    Si3747   Si       0.53432    0.55207    0.54878    1.000
    Si3748   Si       0.52222    0.58418    0.61008    1.000
    N3749    N        0.57621    0.54838    0.55638    1.000
    N3750    N        0.56643    0.58477    0.61787    1.000
    Si3751   Si       0.63167    0.58451    0.53015    1.000
    Si3752   Si       0.71552    0.58128    0.58843    1.000
    N3753    N        0.69022    0.54689    0.58787    1.000
    N3754    N        0.64375    0.54372    0.53771    1.000
    N3755    N        0.61994    0.54347    0.61413    1.000
    N3756    N        0.51791    0.54150    0.62356    1.000
    N3757    N        0.52151    0.55422    0.69895    1.000
    Si3758   Si       0.56364    0.56430    0.70815    1.000
    Si3759   Si       0.67990    0.59904    0.65966    1.000
    N3760    N        0.67156    0.55715    0.66272    1.000
    N3761    N        0.70562    0.55404    0.72006    1.000
    Si3762   Si       0.56349    0.57450    0.79100    1.000
    N3763    N        0.60385    0.58057    0.80281    1.000
    N3764    N        0.55986    0.58018    0.74936    1.000
    N3765    N        0.49241    0.55396    0.84098    1.000
    N3766    N        0.58315    0.56186    0.86884    1.000
    Si3767   Si       0.49920    0.59590    0.83086    1.000
    Si3768   Si       0.61818    0.57794    0.84705    1.000
    N3769    N        0.72038    0.56780    0.78572    1.000
    N3770    N        0.65572    0.55604    0.85585    1.000
    N3771    N        0.65266    0.55355    0.75879    1.000
    Si3772   Si       0.64058    0.58974    0.77909    1.000
    Si3773   Si       0.69421    0.54281    0.76166    1.000
    N3774    N        0.71798    0.59557    0.84963    1.000
    Si3775   Si       0.49442    0.59226    0.90098    1.000
    N3776    N        0.59351    0.55168    0.93717    1.000
    Si3777   Si       0.56629    0.57137    0.90868    1.000
    N3778    N        0.52503    0.56135    0.90679    1.000
    Si3779   Si       0.73356    0.55529    0.98847    1.000
    N3780    N        0.69895    0.58050    0.98507    1.000
    Si3781   Si       0.68408    0.56280    0.89060    1.000
    N3782    N        0.63911    0.54279    0.98684    1.000
    N3783    N        0.66137    0.54194    0.92067    1.000
    N3784    N        0.70134    0.59810    0.91108    1.000
    Si3785   Si       0.63498    0.56413    0.94840    1.000
    N3786    N        0.53484    0.61598    0.11110    1.000
    Si3787   Si       0.57456    0.62697    0.09443    1.000
    Si3788   Si       0.57809    0.63089    0.01432    1.000
    N3789    N        0.57356    0.64672    0.05348    1.000
    N3790    N        0.69774    0.62825    0.08554    1.000
    Si3791   Si       0.73373    0.62746    0.10943    1.000
    N3792    N        0.51353    0.63519    0.23007    1.000
    Si3793   Si       0.54533    0.62168    0.20139    1.000
    Si3794   Si       0.50965    0.63936    0.14013    1.000
    N3795    N        0.58794    0.63423    0.20554    1.000
    N3796    N        0.54068    0.65149    0.16832    1.000
    Si3797   Si       0.58609    0.65226    0.16157    1.000
    N3798    N        0.60066    0.60398    0.15169    1.000
    Si3799   Si       0.62009    0.60736    0.19016    1.000
    N3800    N        0.72016    0.60827    0.14672    1.000
    N3801    N        0.65878    0.62342    0.17571    1.000
    Si3802   Si       0.55243    0.63518    0.32611    1.000
    N3803    N        0.59910    0.63930    0.32819    1.000
    Si3804   Si       0.60312    0.62795    0.28498    1.000
    N3805    N        0.52078    0.64323    0.29818    1.000
    N3806    N        0.54168    0.65340    0.36265    1.000
    N3807    N        0.48589    0.60046    0.34138    1.000
    N3808    N        0.57447    0.65357    0.26513    1.000
    Si3809   Si       0.61052    0.60962    0.35722    1.000
    N3810    N        0.72291    0.61698    0.34131    1.000
    N3811    N        0.65103    0.63522    0.36395    1.000
    Si3812   Si       0.69425    0.64668    0.35570    1.000
    N3813    N        0.71279    0.63730    0.27219    1.000
    Si3814   Si       0.73059    0.60762    0.29980    1.000
    Si3815   Si       0.67332    0.63849    0.25826    1.000
    N3816    N        0.64084    0.65232    0.28294    1.000
    N3817    N        0.59269    0.62388    0.39437    1.000
    Si3818   Si       0.54778    0.62614    0.39744    1.000
    N3819    N        0.53025    0.64429    0.43236    1.000
    N3820    N        0.59222    0.65375    0.46445    1.000
    Si3821   Si       0.64242    0.61863    0.47861    1.000
    Si3822   Si       0.63615    0.63225    0.40582    1.000
    N3823    N        0.64782    0.60551    0.43841    1.000
    Si3824   Si       0.51269    0.62599    0.54670    1.000
    N3825    N        0.53677    0.62073    0.51066    1.000
    Si3826   Si       0.57669    0.63606    0.50224    1.000
    N3827    N        0.60541    0.59849    0.49775    1.000
    N3828    N        0.72265    0.59822    0.54833    1.000
    N3829    N        0.66727    0.64328    0.56277    1.000
    Si3830   Si       0.69376    0.62736    0.53229    1.000
    Si3831   Si       0.64805    0.62150    0.59450    1.000
    N3832    N        0.68415    0.60383    0.61372    1.000
    N3833    N        0.66895    0.59855    0.50767    1.000
    N3834    N        0.62058    0.59877    0.56933    1.000
    N3835    N        0.71801    0.65280    0.50572    1.000
    N3836    N        0.57571    0.60050    0.68676    1.000
    N3837    N        0.52796    0.64157    0.70181    1.000
    Si3838   Si       0.57031    0.63706    0.71180    1.000
    Si3839   Si       0.52129    0.64524    0.65921    1.000
    N3840    N        0.50511    0.61175    0.63840    1.000
    Si3841   Si       0.58328    0.61261    0.64511    1.000
    N3842    N        0.56051    0.64944    0.64028    1.000
    Si3843   Si       0.72859    0.64104    0.70279    1.000
    N3844    N        0.65566    0.62445    0.68346    1.000
    N3845    N        0.71435    0.62696    0.66424    1.000
    N3846    N        0.62038    0.62681    0.62998    1.000
    Si3847   Si       0.70688    0.64212    0.62501    1.000
    N3848    N        0.69641    0.65402    0.73312    1.000
    Si3849   Si       0.65534    0.64968    0.72218    1.000
    Si3850   Si       0.54138    0.64477    0.78677    1.000
    N3851    N        0.53752    0.60557    0.80959    1.000
    N3852    N        0.57353    0.64417    0.75696    1.000
    N3853    N        0.49485    0.61908    0.86561    1.000
    Si3854   Si       0.61132    0.65170    0.77137    1.000
    N3855    N        0.73499    0.63403    0.79046    1.000
    N3856    N        0.66588    0.60876    0.80831    1.000
    Si3857   Si       0.64945    0.63761    0.83922    1.000
    Si3858   Si       0.70910    0.60363    0.80622    1.000
    N3859    N        0.63561    0.62177    0.74969    1.000
    N3860    N        0.62517    0.61610    0.86678    1.000
    N3861    N        0.67842    0.65753    0.86647    1.000
    N3862    N        0.60649    0.65582    0.99355    1.000
    N3863    N        0.57034    0.61353    0.91722    1.000
    Si3864   Si       0.60338    0.63516    0.89904    1.000
    N3865    N        0.54577    0.61562    0.98583    1.000
    N3866    N        0.49658    0.61811    0.93694    1.000
    Si3867   Si       0.53852    0.62881    0.94516    1.000
    N3868    N        0.68128    0.65132    0.97051    1.000
    Si3869   Si       0.70855    0.62749    0.87823    1.000
    N3870    N        0.64396    0.60382    0.95496    1.000
    Si3871   Si       0.63803    0.64691    0.96469    1.000
    Si3872   Si       0.68993    0.61176    0.95497    1.000
    Si3873   Si       0.55526    0.68575    0.04871    1.000
    N3874    N        0.51431    0.68209    0.06014    1.000
    N3875    N        0.55637    0.69626    0.00483    1.000
    Si3876   Si       0.60880    0.69795    0.10217    1.000
    N3877    N        0.59031    0.66289    0.11818    1.000
    Si3878   Si       0.48756    0.69682    0.09195    1.000
    N3879    N        0.64912    0.69260    0.08279    1.000
    N3880    N        0.71195    0.69873    0.09976    1.000
    N3881    N        0.68651    0.67697    0.03380    1.000
    Si3882   Si       0.68870    0.66921    0.07826    1.000
    Si3883   Si       0.65865    0.70775    0.04224    1.000
    N3884    N        0.60114    0.68945    0.18280    1.000
    Si3885   Si       0.58676    0.67816    0.22399    1.000
    N3886    N        0.54261    0.69221    0.22553    1.000
    Si3887   Si       0.52622    0.69104    0.18370    1.000
    N3888    N        0.60715    0.70854    0.24576    1.000
    Si3889   Si       0.67678    0.66332    0.18241    1.000
    N3890    N        0.66642    0.69970    0.15653    1.000
    N3891    N        0.72088    0.66755    0.18421    1.000
    N3892    N        0.67026    0.66884    0.22570    1.000
    Si3893   Si       0.68194    0.70844    0.23414    1.000
    Si3894   Si       0.53049    0.66526    0.26146    1.000
    N3895    N        0.51269    0.70976    0.27796    1.000
    N3896    N        0.50727    0.71343    0.35918    1.000
    N3897    N        0.62164    0.70200    0.31919    1.000
    N3898    N        0.68196    0.68100    0.33093    1.000
    Si3899   Si       0.63219    0.69587    0.27812    1.000
    Si3900   Si       0.63668    0.66236    0.32928    1.000
    Si3901   Si       0.54592    0.69536    0.37106    1.000
    N3902    N        0.49630    0.70015    0.42506    1.000
    N3903    N        0.54348    0.70108    0.47142    1.000
    N3904    N        0.56825    0.70016    0.40855    1.000
    Si3905   Si       0.56002    0.67304    0.44137    1.000
    Si3906   Si       0.68398    0.69537    0.40962    1.000
    N3907    N        0.65507    0.65862    0.48686    1.000
    Si3908   Si       0.62771    0.67766    0.45878    1.000
    N3909    N        0.64552    0.67411    0.41833    1.000
    N3910    N        0.71090    0.66829    0.38890    1.000
    N3911    N        0.69452    0.70046    0.45229    1.000
    Si3912   Si       0.69112    0.68248    0.49028    1.000
    Si3913   Si       0.52637    0.70037    0.57995    1.000
    Si3914   Si       0.59676    0.69978    0.55621    1.000
    N3915    N        0.57847    0.67083    0.52897    1.000
    N3916    N        0.56838    0.69926    0.59050    1.000
    Si3917   Si       0.55595    0.70806    0.51193    1.000
    N3918    N        0.50889    0.66232    0.56900    1.000
    Si3919   Si       0.67013    0.68157    0.58367    1.000
    N3920    N        0.70722    0.69774    0.56731    1.000
    N3921    N        0.63695    0.70669    0.57152    1.000
    N3922    N        0.67334    0.66801    0.62419    1.000
    N3923    N        0.49800    0.68076    0.65030    1.000
    Si3924   Si       0.49918    0.66680    0.72498    1.000
    Si3925   Si       0.57731    0.68962    0.63256    1.000
    N3926    N        0.51470    0.70435    0.71241    1.000
    N3927    N        0.60321    0.66206    0.69484    1.000
    Si3928   Si       0.61482    0.70173    0.71050    1.000
    Si3929   Si       0.69903    0.70352    0.70097    1.000
    N3930    N        0.61989    0.69887    0.64269    1.000
    Si3931   Si       0.63839    0.65839    0.65734    1.000
    N3932    N        0.65984    0.68683    0.68823    1.000
    N3933    N        0.73518    0.68341    0.69034    1.000
    N3934    N        0.63126    0.68434    0.74804    1.000
    N3935    N        0.55565    0.67513    0.81513    1.000
    Si3936   Si       0.59150    0.68313    0.83636    1.000
    Si3937   Si       0.52036    0.70223    0.81260    1.000
    N3938    N        0.50632    0.65921    0.76701    1.000
    Si3939   Si       0.65843    0.71032    0.77052    1.000
    N3940    N        0.68719    0.68935    0.79691    1.000
    Si3941   Si       0.71507    0.66693    0.77061    1.000
    N3942    N        0.62226    0.66084    0.81409    1.000
    N3943    N        0.58782    0.67143    0.87890    1.000
    Si3944   Si       0.59718    0.69879    0.99033    1.000
    Si3945   Si       0.52751    0.70354    0.91388    1.000
    N3946    N        0.54332    0.67234    0.94281    1.000
    Si3947   Si       0.59953    0.69783    0.91361    1.000
    N3948    N        0.49477    0.68643    0.89218    1.000
    Si3949   Si       0.52487    0.69390    0.97767    1.000
    Si3950   Si       0.67078    0.69826    0.88386    1.000
    N3951    N        0.70377    0.70727    0.91097    1.000
    N3952    N        0.62015    0.65958    0.92992    1.000
    N3953    N        0.71634    0.71272    0.98239    1.000
    Si3954   Si       0.71084    0.67190    0.99769    1.000
    Si3955   Si       0.59779    0.74678    0.04560    1.000
    N3956    N        0.50170    0.73460    0.10417    1.000
    N3957    N        0.58072    0.71656    0.07170    1.000
    N3958    N        0.51208    0.77307    0.04268    1.000
    Si3959   Si       0.49073    0.76917    0.07940    1.000
    N3960    N        0.68469    0.74212    0.03755    1.000
    Si3961   Si       0.72155    0.74050    0.01521    1.000
    Si3962   Si       0.63376    0.76613    0.11108    1.000
    N3963    N        0.63028    0.76901    0.06651    1.000
    N3964    N        0.62147    0.71909    0.02211    1.000
    N3965    N        0.67629    0.75930    0.11590    1.000
    N3966    N        0.54170    0.72559    0.16279    1.000
    N3967    N        0.60577    0.75801    0.18676    1.000
    Si3968   Si       0.51934    0.75513    0.13780    1.000
    Si3969   Si       0.57795    0.74892    0.15410    1.000
    Si3970   Si       0.60144    0.74872    0.22854    1.000
    N3971    N        0.55895    0.76074    0.23595    1.000
    Si3972   Si       0.52755    0.73006    0.24134    1.000
    N3973    N        0.49018    0.74625    0.22501    1.000
    N3974    N        0.72733    0.72967    0.15408    1.000
    N3975    N        0.61409    0.73284    0.13045    1.000
    Si3976   Si       0.69249    0.72104    0.13103    1.000
    N3977    N        0.65665    0.73448    0.21041    1.000
    Si3978   Si       0.63029    0.72111    0.17272    1.000
    N3979    N        0.72150    0.72152    0.22878    1.000
    Si3980   Si       0.66385    0.77374    0.22902    1.000
    Si3981   Si       0.50981    0.73070    0.31741    1.000
    Si3982   Si       0.60711    0.73520    0.34033    1.000
    N3983    N        0.56466    0.72868    0.34854    1.000
    N3984    N        0.52475    0.77153    0.31830    1.000
    Si3985   Si       0.55841    0.77204    0.34455    1.000
    N3986    N        0.73059    0.73482    0.29391    1.000
    N3987    N        0.68431    0.75553    0.33590    1.000
    Si3988   Si       0.69205    0.72048    0.31159    1.000
    Si3989   Si       0.73541    0.75260    0.25432    1.000
    N3990    N        0.66993    0.71618    0.27488    1.000
    N3991    N        0.49496    0.74755    0.48810    1.000
    N3992    N        0.59104    0.76506    0.42416    1.000
    Si3993   Si       0.60510    0.72506    0.41210    1.000
    Si3994   Si       0.51451    0.72787    0.45321    1.000
    Si3995   Si       0.60786    0.75949    0.46483    1.000
    N3996    N        0.52321    0.76861    0.43605    1.000
    N3997    N        0.65093    0.77070    0.46675    1.000
    N3998    N        0.61402    0.71706    0.45422    1.000
    N3999    N        0.63006    0.73257    0.37812    1.000
    Si4000   Si       0.66413    0.76019    0.37929    1.000
    N4001    N        0.69213    0.73834    0.40171    1.000
    N4002    N        0.72418    0.76112    0.45353    1.000
    Si4003   Si       0.68581    0.74146    0.46479    1.000
    Si4004   Si       0.73047    0.76552    0.41009    1.000
    N4005    N        0.58734    0.73300    0.52555    1.000
    N4006    N        0.49904    0.72248    0.60173    1.000
    N4007    N        0.52491    0.71976    0.54047    1.000
    Si4008   Si       0.50028    0.76372    0.62002    1.000
    N4009    N        0.68351    0.72230    0.50635    1.000
    Si4010   Si       0.64991    0.74840    0.57760    1.000
    Si4011   Si       0.70975    0.73167    0.53885    1.000
    N4012    N        0.68676    0.76117    0.55933    1.000
    N4013    N        0.66506    0.74513    0.61905    1.000
    Si4014   Si       0.53923    0.72856    0.73724    1.000
    Si4015   Si       0.58580    0.74582    0.68169    1.000
    N4016    N        0.57883    0.72597    0.72147    1.000
    N4017    N        0.50229    0.75401    0.66389    1.000
    N4018    N        0.55829    0.72030    0.65901    1.000
    N4019    N        0.52177    0.76881    0.73010    1.000
    Si4020   Si       0.51662    0.71396    0.67080    1.000
    Si4021   Si       0.65206    0.72348    0.65700    1.000
    Si4022   Si       0.66960    0.76590    0.70753    1.000
    Si4023   Si       0.70739    0.74597    0.63233    1.000
    N4024    N        0.68801    0.72316    0.73916    1.000
    N4025    N        0.69130    0.74068    0.67581    1.000
    N4026    N        0.62934    0.74229    0.69139    1.000
    N4027    N        0.73515    0.71417    0.62915    1.000
    N4028    N        0.52638    0.72880    0.77971    1.000
    N4029    N        0.52507    0.72912    0.84723    1.000
    N4030    N        0.59652    0.72753    0.83827    1.000
    Si4031   Si       0.56366    0.74158    0.86291    1.000
    Si4032   Si       0.50847    0.76820    0.77193    1.000
    N4033    N        0.71379    0.75482    0.79772    1.000
    Si4034   Si       0.63563    0.74636    0.83531    1.000
    N4035    N        0.64545    0.74759    0.78956    1.000
    Si4036   Si       0.72322    0.73740    0.75792    1.000
    N4037    N        0.67246    0.72810    0.84946    1.000
    Si4038   Si       0.70742    0.71814    0.82574    1.000
    N4039    N        0.49396    0.76725    0.89868    1.000
    N4040    N        0.51445    0.72748    0.94869    1.000
    Si4041   Si       0.57825    0.75549    0.93710    1.000
    N4042    N        0.56414    0.72554    0.90469    1.000
    Si4043   Si       0.51010    0.76886    0.93764    1.000
    N4044    N        0.60180    0.72417    0.95576    1.000
    N4045    N        0.63753    0.71971    0.90427    1.000
    Si4046   Si       0.63810    0.74575    0.93991    1.000
    Si4047   Si       0.70999    0.73331    0.94488    1.000
    N4048    N        0.67557    0.75603    0.95606    1.000
    N4049    N        0.56141    0.81558    0.07331    1.000
    Si4050   Si       0.54885    0.79672    0.03704    1.000
    N4051    N        0.50135    0.80222    0.10387    1.000
    Si4052   Si       0.54313    0.81321    0.11234    1.000
    N4053    N        0.53114    0.82303    0.00699    1.000
    Si4054   Si       0.61013    0.81052    0.00268    1.000
    N4055    N        0.58338    0.77915    0.01851    1.000
    N4056    N        0.69292    0.80753    0.06402    1.000
    Si4057   Si       0.69492    0.79914    0.10726    1.000
    N4058    N        0.65088    0.79614    0.00460    1.000
    Si4059   Si       0.66638    0.77984    0.04416    1.000
    N4060    N        0.72134    0.78146    0.00160    1.000
    N4061    N        0.49769    0.78074    0.16414    1.000
    Si4062   Si       0.55663    0.80344    0.23328    1.000
    N4063    N        0.51518    0.81154    0.22559    1.000
    N4064    N        0.58279    0.81549    0.20087    1.000
    N4065    N        0.55661    0.77411    0.12732    1.000
    N4066    N        0.73171    0.81921    0.19345    1.000
    N4067    N        0.73519    0.79416    0.12234    1.000
    Si4068   Si       0.62127    0.80185    0.18329    1.000
    N4069    N        0.62764    0.80002    0.13752    1.000
    N4070    N        0.66365    0.80492    0.19935    1.000
    Si4071   Si       0.50576    0.81107    0.31545    1.000
    N4072    N        0.57013    0.82007    0.27209    1.000
    N4073    N        0.60090    0.77936    0.33334    1.000
    Si4074   Si       0.52312    0.83574    0.36804    1.000
    Si4075   Si       0.61544    0.81454    0.27357    1.000
    Si4076   Si       0.62311    0.81473    0.34809    1.000
    N4077    N        0.71327    0.82079    0.31416    1.000
    Si4078   Si       0.71508    0.78597    0.34008    1.000
    Si4079   Si       0.71101    0.82204    0.26902    1.000
    N4080    N        0.70246    0.78220    0.25147    1.000
    N4081    N        0.62568    0.77887    0.25036    1.000
    N4082    N        0.63172    0.83395    0.30917    1.000
    Si4083   Si       0.56166    0.82119    0.48272    1.000
    N4084    N        0.54816    0.80106    0.37752    1.000
    Si4085   Si       0.55595    0.79036    0.41914    1.000
    Si4086   Si       0.49766    0.78591    0.46747    1.000
    N4087    N        0.59432    0.79231    0.49159    1.000
    N4088    N        0.56137    0.83025    0.43954    1.000
    N4089    N        0.51721    0.81773    0.48911    1.000
    Si4090   Si       0.63683    0.80854    0.48377    1.000
    N4091    N        0.71736    0.79671    0.38315    1.000
    N4092    N        0.64987    0.80072    0.37958    1.000
    N4093    N        0.55935    0.80356    0.55126    1.000
    Si4094   Si       0.52910    0.81759    0.57842    1.000
    N4095    N        0.53067    0.79466    0.61490    1.000
    Si4096   Si       0.58997    0.77517    0.53458    1.000
    N4097    N        0.49075    0.81896    0.55753    1.000
    Si4098   Si       0.64206    0.81792    0.55960    1.000
    Si4099   Si       0.70522    0.79423    0.58025    1.000
    N4100    N        0.72185    0.81879    0.54752    1.000
    N4101    N        0.67257    0.82013    0.59038    1.000
    N4102    N        0.65772    0.82176    0.51838    1.000
    N4103    N        0.72582    0.77862    0.61391    1.000
    N4104    N        0.62245    0.77789    0.56472    1.000
    N4105    N        0.51691    0.81939    0.68086    1.000
    N4106    N        0.58026    0.78613    0.67052    1.000
    Si4107   Si       0.54756    0.80895    0.65225    1.000
    Si4108   Si       0.49890    0.78301    0.69543    1.000
    Si4109   Si       0.61593    0.81115    0.67699    1.000
    N4110    N        0.65602    0.80423    0.69168    1.000
    N4111    N        0.68642    0.78547    0.74468    1.000
    Si4112   Si       0.72881    0.80358    0.74526    1.000
    N4113    N        0.52176    0.80260    0.79629    1.000
    Si4114   Si       0.54245    0.80682    0.83486    1.000
    Si4115   Si       0.59889    0.81018    0.86195    1.000
    N4116    N        0.51543    0.82533    0.86489    1.000
    N4117    N        0.57962    0.82854    0.82744    1.000
    N4118    N        0.56329    0.78542    0.86679    1.000
    N4119    N        0.67050    0.81167    0.80736    1.000
    N4120    N        0.71927    0.79852    0.85008    1.000
    Si4121   Si       0.67406    0.80243    0.85005    1.000
    N4122    N        0.63428    0.78543    0.85610    1.000
    Si4123   Si       0.67594    0.77717    0.78491    1.000
    N4124    N        0.54912    0.78698    0.93353    1.000
    Si4125   Si       0.54681    0.81565    0.89982    1.000
    N4126    N        0.58897    0.83156    0.96971    1.000
    Si4127   Si       0.61219    0.82520    0.93318    1.000
    Si4128   Si       0.68469    0.79246    0.97731    1.000
    N4129    N        0.69887    0.81754    0.94588    1.000
    N4130    N        0.61536    0.78214    0.93323    1.000
    Si4131   Si       0.58939    0.84854    0.06693    1.000
    Si4132   Si       0.53179    0.86657    0.02320    1.000
    N4133    N        0.56041    0.87871    0.05325    1.000
    N4134    N        0.49129    0.87632    0.03369    1.000
    N4135    N        0.60913    0.85776    0.10379    1.000
    N4136    N        0.61468    0.84242    0.03183    1.000
    Si4137   Si       0.70972    0.84610    0.04804    1.000
    N4138    N        0.68344    0.86050    0.01748    1.000
    Si4139   Si       0.64479    0.87208    0.02446    1.000
    N4140    N        0.71486    0.87900    0.07800    1.000
    Si4141   Si       0.69332    0.88181    0.11332    1.000
    Si4142   Si       0.57475    0.84750    0.17351    1.000
    N4143    N        0.54607    0.84512    0.14264    1.000
    Si4144   Si       0.51698    0.87843    0.14320    1.000
    N4145    N        0.57543    0.88135    0.20059    1.000
    Si4146   Si       0.49782    0.84463    0.24959    1.000
    N4147    N        0.68132    0.83942    0.12167    1.000
    Si4148   Si       0.73592    0.88407    0.16616    1.000
    N4149    N        0.62214    0.85081    0.17167    1.000
    Si4150   Si       0.63894    0.84320    0.13179    1.000
    N4151    N        0.69051    0.85047    0.24547    1.000
    N4152    N        0.69543    0.87540    0.18544    1.000
    Si4153   Si       0.61535    0.86757    0.21130    1.000
    Si4154   Si       0.69296    0.83666    0.20526    1.000
    Si4155   Si       0.55639    0.85668    0.28973    1.000
    N4156    N        0.52830    0.87189    0.26256    1.000
    N4157    N        0.53507    0.84192    0.32496    1.000
    N4158    N        0.58923    0.88791    0.29612    1.000
    Si4159   Si       0.62929    0.87345    0.28850    1.000
    N4160    N        0.73898    0.86390    0.36656    1.000
    Si4161   Si       0.73843    0.85485    0.32572    1.000
    N4162    N        0.72207    0.88934    0.30256    1.000
    N4163    N        0.62252    0.85101    0.25003    1.000
    N4164    N        0.61677    0.85113    0.37469    1.000
    N4165    N        0.51068    0.86071    0.40096    1.000
    Si4166   Si       0.54394    0.86829    0.42793    1.000
    N4167    N        0.53218    0.88669    0.46616    1.000
    N4168    N        0.64190    0.83458    0.44873    1.000
    Si4169   Si       0.67747    0.85962    0.45448    1.000
    N4170    N        0.70812    0.85009    0.48109    1.000
    Si4171   Si       0.72017    0.83768    0.39344    1.000
    N4172    N        0.68449    0.86037    0.40969    1.000
    Si4173   Si       0.64492    0.83483    0.40562    1.000
    N4174    N        0.54294    0.85912    0.57663    1.000
    Si4175   Si       0.57558    0.84300    0.54925    1.000
    N4176    N        0.57468    0.85496    0.50776    1.000
    N4177    N        0.50056    0.88377    0.52836    1.000
    Si4178   Si       0.54357    0.88197    0.61719    1.000
    Si4179   Si       0.49307    0.84110    0.51843    1.000
    N4180    N        0.61387    0.85010    0.56640    1.000
    N4181    N        0.68501    0.88088    0.53727    1.000
    N4182    N        0.72874    0.87514    0.59969    1.000
    Si4183   Si       0.69537    0.84113    0.52309    1.000
    N4184    N        0.65988    0.88198    0.60620    1.000
    Si4185   Si       0.62035    0.88711    0.58810    1.000
    N4186    N        0.50152    0.87658    0.63697    1.000
    N4187    N        0.59900    0.84360    0.70098    1.000
    Si4188   Si       0.50226    0.86163    0.67906    1.000
    N4189    N        0.55941    0.85085    0.64301    1.000
    Si4190   Si       0.59414    0.86583    0.66250    1.000
    N4191    N        0.52796    0.88525    0.70336    1.000
    Si4192   Si       0.66357    0.84389    0.62506    1.000
    N4193    N        0.69738    0.84642    0.65253    1.000
    N4194    N        0.72205    0.83350    0.71431    1.000
    N4195    N        0.66317    0.87193    0.71500    1.000
    Si4196   Si       0.73572    0.85653    0.63943    1.000
    Si4197   Si       0.62032    0.86635    0.73095    1.000
    N4198    N        0.62462    0.83837    0.64466    1.000
    Si4199   Si       0.68328    0.83846    0.69217    1.000
    Si4200   Si       0.58810    0.85476    0.79496    1.000
    N4201    N        0.51896    0.87243    0.81180    1.000
    N4202    N        0.55513    0.85582    0.76247    1.000
    Si4203   Si       0.51722    0.84314    0.77954    1.000
    Si4204   Si       0.49429    0.85543    0.84267    1.000
    N4205    N        0.58608    0.89424    0.81086    1.000
    N4206    N        0.62442    0.85303    0.77263    1.000
    Si4207   Si       0.66064    0.85282    0.79612    1.000
    N4208    N        0.69668    0.86415    0.77623    1.000
    N4209    N        0.72352    0.86837    0.84175    1.000
    N4210    N        0.65770    0.88194    0.82701    1.000
    Si4211   Si       0.68478    0.87595    0.86161    1.000
    Si4212   Si       0.73283    0.85641    0.79845    1.000
    N4213    N        0.52662    0.84443    0.92752    1.000
    Si4214   Si       0.58384    0.87975    0.89292    1.000
    Si4215   Si       0.50832    0.87864    0.90533    1.000
    N4216    N        0.54223    0.87916    0.98377    1.000
    Si4217   Si       0.54308    0.83781    0.96644    1.000
    N4218    N        0.58818    0.83659    0.89781    1.000
    N4219    N        0.69524    0.88966    0.90518    1.000
    N4220    N        0.64441    0.85452    0.93679    1.000
    N4221    N        0.67451    0.83587    0.87905    1.000
    Si4222   Si       0.68467    0.84810    0.91915    1.000
    Si4223   Si       0.55392    0.91125    0.08138    1.000
    N4224    N        0.58871    0.92521    0.10469    1.000
    N4225    N        0.53814    0.94076    0.05588    1.000
    N4226    N        0.51879    0.89201    0.10020    1.000
    Si4227   Si       0.62507    0.93431    0.01349    1.000
    Si4228   Si       0.62402    0.89801    0.09955    1.000
    N4229    N        0.63537    0.89803    0.05700    1.000
    Si4230   Si       0.56155    0.91990    0.19530    1.000
    N4231    N        0.52976    0.91348    0.16612    1.000
    N4232    N        0.55417    0.93535    0.23454    1.000
    N4233    N        0.59262    0.94388    0.17139    1.000
    N4234    N        0.71043    0.92050    0.24193    1.000
    N4235    N        0.64091    0.90268    0.21365    1.000
    Si4236   Si       0.67027    0.90707    0.16919    1.000
    Si4237   Si       0.62652    0.94350    0.20040    1.000
    N4238    N        0.65666    0.89873    0.12876    1.000
    N4239    N        0.71858    0.91151    0.13678    1.000
    Si4240   Si       0.67603    0.89394    0.24049    1.000
    Si4241   Si       0.57852    0.92713    0.31030    1.000
    N4242    N        0.59025    0.92612    0.35391    1.000
    N4243    N        0.53550    0.92030    0.30544    1.000
    Si4244   Si       0.52691    0.91626    0.26153    1.000
    Si4245   Si       0.51052    0.94181    0.33242    1.000
    N4246    N        0.51584    0.92007    0.36898    1.000
    Si4247   Si       0.68717    0.91692    0.31296    1.000
    N4248    N        0.66017    0.90229    0.28131    1.000
    N4249    N        0.67112    0.90031    0.34830    1.000
    Si4250   Si       0.55503    0.93197    0.38235    1.000
    Si4251   Si       0.50020    0.91593    0.46786    1.000
    N4252    N        0.59202    0.92184    0.47030    1.000
    N4253    N        0.56883    0.89397    0.40412    1.000
    Si4254   Si       0.56712    0.89376    0.49390    1.000
    Si4255   Si       0.48783    0.89697    0.39299    1.000
    Si4256   Si       0.60659    0.89396    0.38145    1.000
    N4257    N        0.71225    0.92378    0.39372    1.000
    Si4258   Si       0.67564    0.89985    0.39062    1.000
    N4259    N        0.66453    0.89920    0.46799    1.000
    Si4260   Si       0.63130    0.92215    0.44995    1.000
    N4261    N        0.63783    0.90856    0.40908    1.000
    N4262    N        0.52748    0.92027    0.59142    1.000
    N4263    N        0.56043    0.91792    0.53003    1.000
    N4264    N        0.58551    0.89920    0.61056    1.000
    Si4265   Si       0.59004    0.94471    0.54967    1.000
    Si4266   Si       0.53073    0.89723    0.55593    1.000
    N4267    N        0.62369    0.92138    0.56137    1.000
    N4268    N        0.69797    0.93145    0.57319    1.000
    Si4269   Si       0.68261    0.91158    0.50499    1.000
    N4270    N        0.72326    0.92606    0.50423    1.000
    Si4271   Si       0.73535    0.94274    0.54600    1.000
    N4272    N        0.66340    0.94795    0.51834    1.000
    Si4273   Si       0.69360    0.88798    0.57945    1.000
    Si4274   Si       0.60520    0.93219    0.70533    1.000
    N4275    N        0.59620    0.90271    0.73519    1.000
    Si4276   Si       0.58962    0.93177    0.63855    1.000
    N4277    N        0.59972    0.90609    0.67172    1.000
    Si4278   Si       0.55269    0.89043    0.73642    1.000
    Si4279   Si       0.69028    0.89255    0.74382    1.000
    N4280    N        0.72965    0.90370    0.73102    1.000
    N4281    N        0.52869    0.91965    0.76194    1.000
    N4282    N        0.54017    0.93808    0.82966    1.000
    Si4283   Si       0.54523    0.90489    0.80097    1.000
    Si4284   Si       0.62278    0.90685    0.83041    1.000
    N4285    N        0.71391    0.93713    0.82931    1.000
    N4286    N        0.67521    0.92979    0.76295    1.000
    Si4287   Si       0.67944    0.94565    0.80272    1.000
    N4288    N        0.63885    0.94547    0.81743    1.000
    Si4289   Si       0.54326    0.93696    0.87300    1.000
    Si4290   Si       0.56598    0.90972    0.96607    1.000
    N4291    N        0.53877    0.93922    0.94985    1.000
    Si4292   Si       0.50023    0.94430    0.92989    1.000
    N4293    N        0.58998    0.89338    0.93492    1.000
    N4294    N        0.54454    0.89392    0.88464    1.000
    N4295    N        0.58434    0.94002    0.99293    1.000
    N4296    N        0.61444    0.90428    0.87199    1.000
    N4297    N        0.62913    0.89595    0.99076    1.000
    N4298    N        0.71170    0.94202    0.95495    1.000
    Si4299   Si       0.63080    0.89356    0.94908    1.000
    Si4300   Si       0.61941    0.94021    0.89724    1.000
    Si4301   Si       0.72260    0.91925    0.91858    1.000
    N4302    N        0.64445    0.93101    0.93275    1.000
    N4303    N        0.72790    0.95342    0.89121    1.000
    Si4304   Si       0.56755    0.96873    0.03864    1.000
    Si4305   Si       0.50402    0.96200    0.03842    1.000
    N4306    N        0.53790    0.98182    0.00930    1.000
    N4307    N        0.49320    0.99157    0.07549    1.000
    Si4308   Si       0.52963    0.00265    0.09674    1.000
    N4309    N        0.56226    0.00596    0.06545    1.000
    N4310    N        0.60945    0.96466    0.04491    1.000
    N4311    N        0.61607    0.99176    0.11427    1.000
    Si4312   Si       0.62710    0.99345    0.07215    1.000
    N4313    N        0.72470    0.97149    0.01879    1.000
    N4314    N        0.66976    0.98589    0.06461    1.000
    Si4315   Si       0.68244    0.98170    0.02411    1.000
    Si4316   Si       0.69425    0.00345    0.09431    1.000
    N4317    N        0.54571    0.97431    0.12776    1.000
    Si4318   Si       0.58824    0.96035    0.12970    1.000
    N4319    N        0.50884    0.97926    0.18734    1.000
    Si4320   Si       0.51535    0.95376    0.15346    1.000
    Si4321   Si       0.51383    0.99809    0.22645    1.000
    N4322    N        0.55476    0.00570    0.23617    1.000
    Si4323   Si       0.57774    0.96995    0.24956    1.000
    N4324    N        0.66457    0.94924    0.17788    1.000
    N4325    N        0.61681    0.96816    0.23300    1.000
    N4326    N        0.71608    0.99846    0.19399    1.000
    N4327    N        0.70148    0.98216    0.13126    1.000
    Si4328   Si       0.68174    0.98697    0.16939    1.000
    Si4329   Si       0.73369    0.95169    0.12861    1.000
    N4330    N        0.53333    0.98107    0.33764    1.000
    N4331    N        0.58192    0.96699    0.29211    1.000
    Si4332   Si       0.56657    0.00303    0.31467    1.000
    N4333    N        0.49142    0.99760    0.26793    1.000
    Si4334   Si       0.50412    0.00488    0.31352    1.000
    N4335    N        0.65547    0.99392    0.29702    1.000
    N4336    N        0.72093    0.99388    0.26460    1.000
    Si4337   Si       0.69825    0.99138    0.30321    1.000
    Si4338   Si       0.63843    0.99867    0.25677    1.000
    N4339    N        0.70994    0.95530    0.32803    1.000
    N4340    N        0.52463    0.94877    0.48300    1.000
    Si4341   Si       0.52593    0.99834    0.37836    1.000
    N4342    N        0.55435    0.96972    0.40051    1.000
    N4343    N        0.56441    0.99496    0.46438    1.000
    Si4344   Si       0.56975    0.95535    0.48279    1.000
    Si4345   Si       0.57178    0.00076    0.42300    1.000
    N4346    N        0.49308    0.99395    0.40979    1.000
    N4347    N        0.72325    0.97431    0.44994    1.000
    N4348    N        0.72795    0.99225    0.38421    1.000
    Si4349   Si       0.70229    0.96047    0.37195    1.000
    Si4350   Si       0.64735    0.99586    0.42121    1.000
    N4351    N        0.63944    0.96680    0.45328    1.000
    Si4352   Si       0.63721    0.97457    0.49893    1.000
    N4353    N        0.66492    0.97495    0.38697    1.000
    N4354    N        0.57776    0.96729    0.58347    1.000
    N4355    N        0.59824    0.97010    0.51492    1.000
    N4356    N        0.51025    0.99003    0.59362    1.000
    Si4357   Si       0.49858    0.97766    0.51008    1.000
    Si4358   Si       0.54128    0.95975    0.60366    1.000
    Si4359   Si       0.61129    0.98934    0.60208    1.000
    N4360    N        0.52994    0.00549    0.52396    1.000
    N4361    N        0.64385    0.98564    0.57313    1.000
    Si4362   Si       0.71894    0.95040    0.60754    1.000
    Si4363   Si       0.65885    0.94730    0.56060    1.000
    Si4364   Si       0.54134    0.97333    0.68396    1.000
    N4365    N        0.57422    0.96415    0.71378    1.000
    N4366    N        0.50596    0.96263    0.70677    1.000
    N4367    N        0.55143    0.95293    0.64511    1.000
    Si4368   Si       0.50036    0.95100    0.74816    1.000
    N4369    N        0.64541    0.94858    0.70016    1.000
    Si4370   Si       0.66024    0.96197    0.73706    1.000
    Si4371   Si       0.65543    0.96857    0.65978    1.000
    N4372    N        0.69096    0.95793    0.63860    1.000
    N4373    N        0.62095    0.96112    0.63421    1.000
    N4374    N        0.69102    0.99047    0.72789    1.000
    Si4375   Si       0.53645    0.97703    0.81057    1.000
    N4376    N        0.57676    0.97855    0.79174    1.000
    N4377    N        0.51110    0.98560    0.77454    1.000
    N4378    N        0.52778    0.00403    0.84195    1.000
    Si4379   Si       0.49133    0.98742    0.86304    1.000
    Si4380   Si       0.58141    0.98722    0.74819    1.000
    Si4381   Si       0.62121    0.98118    0.79801    1.000
    N4382    N        0.68427    0.98832    0.79598    1.000
    Si4383   Si       0.71503    0.99631    0.76679    1.000
    N4384    N        0.62484    0.98155    0.75463    1.000
    N4385    N        0.68840    0.00274    0.86416    1.000
    Si4386   Si       0.71973    0.97366    0.85550    1.000
    Si4387   Si       0.58988    0.99305    0.90468    1.000
    N4388    N        0.58358    0.99519    0.94879    1.000
    Si4389   Si       0.55731    0.97007    0.97356    1.000
    N4390    N        0.57763    0.95524    0.88953    1.000
    N4391    N        0.50798    0.95730    0.88829    1.000
    N4392    N        0.65973    0.95635    0.99766    1.000
    N4393    N        0.63212    0.98345    0.89640    1.000
    Si4394   Si       0.67094    0.95643    0.95338    1.000
    N4395    N        0.67487    0.99908    0.94182    1.000
    Si4396   Si       0.73847    0.96762    0.97812    1.000
    N4397    N        0.83703    0.02967    0.07698    1.000
    Si4398   Si       0.75317    0.05234    0.09430    1.000
    Si4399   Si       0.81940    0.02054    0.11699    1.000
    N4400    N        0.84505    0.01195    0.00952    1.000
    Si4401   Si       0.87148    0.05349    0.08011    1.000
    Si4402   Si       0.94320    0.04760    0.10833    1.000
    N4403    N        0.89894    0.03701    0.11064    1.000
    N4404    N        0.96988    0.02173    0.08523    1.000
    Si4405   Si       0.96117    0.02028    0.04240    1.000
    N4406    N        0.89184    0.04991    0.04184    1.000
    N4407    N        0.95659    0.06400    0.03401    1.000
    N4408    N        0.78297    0.04485    0.12406    1.000
    Si4409   Si       0.84947    0.01374    0.18976    1.000
    Si4410   Si       0.80288    0.05714    0.16310    1.000
    N4411    N        0.85062    0.02942    0.22942    1.000
    Si4412   Si       0.77482    0.04139    0.22987    1.000
    N4413    N        0.84035    0.03590    0.15241    1.000
    N4414    N        0.77898    0.02572    0.18871    1.000
    N4415    N        0.92579    0.06020    0.21237    1.000
    Si4416   Si       0.88401    0.04583    0.14854    1.000
    N4417    N        0.95661    0.04527    0.14957    1.000
    N4418    N        0.89473    0.01391    0.17482    1.000
    Si4419   Si       0.93847    0.02380    0.18271    1.000
    Si4420   Si       0.98988    0.03885    0.22578    1.000
    Si4421   Si       0.79485    0.01911    0.29721    1.000
    N4422    N        0.78147    0.05991    0.29637    1.000
    Si4423   Si       0.74585    0.01428    0.35084    1.000
    N4424    N        0.76476    0.04904    0.36837    1.000
    N4425    N        0.78321    0.00880    0.25635    1.000
    N4426    N        0.83879    0.00862    0.29641    1.000
    Si4427   Si       0.86635    0.00864    0.26372    1.000
    Si4428   Si       0.95789    0.02528    0.36253    1.000
    N4429    N        0.97059    0.04964    0.26494    1.000
    N4430    N        0.90609    0.02250    0.27764    1.000
    Si4431   Si       0.92760    0.05506    0.25703    1.000
    N4432    N        0.95562    0.05630    0.33004    1.000
    Si4433   Si       0.99084    0.04771    0.30385    1.000
    N4434    N        0.82556    0.01348    0.37303    1.000
    N4435    N        0.80887    0.01745    0.43680    1.000
    Si4436   Si       0.81241    0.05787    0.44954    1.000
    Si4437   Si       0.80749    0.05349    0.37727    1.000
    Si4438   Si       0.89005    0.02101    0.38709    1.000
    N4439    N        0.87797    0.06361    0.39632    1.000
    N4440    N        0.93459    0.02083    0.39831    1.000
    N4441    N        0.76654    0.03633    0.54482    1.000
    Si4442   Si       0.77644    0.04101    0.58730    1.000
    N4443    N        0.87808    0.02309    0.50931    1.000
    N4444    N        0.94801    0.04116    0.51159    1.000
    Si4445   Si       0.98264    0.03702    0.53716    1.000
    Si4446   Si       0.86559    0.06465    0.50465    1.000
    N4447    N        0.78918    0.05704    0.65628    1.000
    N4448    N        0.84439    0.02954    0.68434    1.000
    Si4449   Si       0.81912    0.02284    0.64905    1.000
    N4450    N        0.78533    0.01454    0.71924    1.000
    Si4451   Si       0.76613    0.04497    0.74342    1.000
    Si4452   Si       0.74317    0.05716    0.65351    1.000
    N4453    N        0.90258    0.05700    0.64103    1.000
    N4454    N        0.90930    0.04697    0.70185    1.000
    N4455    N        0.97155    0.03281    0.69630    1.000
    Si4456   Si       0.87883    0.05664    0.73920    1.000
    Si4457   Si       0.89597    0.01416    0.62733    1.000
    Si4458   Si       0.93690    0.02079    0.72626    1.000
    N4459    N        0.96793    0.04270    0.62988    1.000
    Si4460   Si       0.87540    0.06172    0.67623    1.000
    Si4461   Si       0.94131    0.04889    0.66479    1.000
    Si4462   Si       0.77178    0.03347    0.85176    1.000
    Si4463   Si       0.85318    0.03079    0.85522    1.000
    Si4464   Si       0.82278    0.03107    0.79488    1.000
    N4465    N        0.81291    0.04105    0.84060    1.000
    N4466    N        0.78973    0.05750    0.77952    1.000
    N4467    N        0.86523    0.02446    0.81224    1.000
    N4468    N        0.74625    0.06573    0.84228    1.000
    N4469    N        0.84638    0.02554    0.75204    1.000
    Si4470   Si       0.94165    0.03278    0.79259    1.000
    N4471    N        0.90582    0.03037    0.76210    1.000
    N4472    N        0.96685    0.02416    0.75941    1.000
    Si4473   Si       0.88528    0.06298    0.80461    1.000
    N4474    N        0.94910    0.00896    0.82783    1.000
    Si4475   Si       0.92260    0.00678    0.86303    1.000
    N4476    N        0.89425    0.03630    0.87296    1.000
    N4477    N        0.85950    0.05573    0.96042    1.000
    Si4478   Si       0.76654    0.03079    0.93749    1.000
    N4479    N        0.80509    0.01419    0.94714    1.000
    N4480    N        0.77296    0.02047    0.89330    1.000
    Si4481   Si       0.82624    0.03553    0.97743    1.000
    N4482    N        0.79869    0.06440    0.99588    1.000
    N4483    N        0.96633    0.04339    0.95277    1.000
    Si4484   Si       0.97810    0.02626    0.91354    1.000
    N4485    N        0.83381    0.11280    0.02948    1.000
    Si4486   Si       0.79568    0.09033    0.03145    1.000
    N4487    N        0.76521    0.11560    0.01576    1.000
    N4488    N        0.77713    0.06692    0.06251    1.000
    N4489    N        0.86960    0.09606    0.08961    1.000
    N4490    N        0.93711    0.09193    0.10222    1.000
    Si4491   Si       0.97245    0.11781    0.09803    1.000
    Si4492   Si       0.91789    0.07865    0.02461    1.000
    N4493    N        0.90500    0.12029    0.03375    1.000
    Si4494   Si       0.86732    0.12308    0.05498    1.000
    Si4495   Si       0.89947    0.10821    0.11863    1.000
    N4496    N        0.80111    0.07597    0.23125    1.000
    Si4497   Si       0.79426    0.11150    0.20682    1.000
    N4498    N        0.75216    0.10365    0.19228    1.000
    N4499    N        0.81592    0.09725    0.17205    1.000
    Si4500   Si       0.84199    0.07013    0.24163    1.000
    Si4501   Si       0.90518    0.09545    0.19969    1.000
    N4502    N        0.86994    0.09672    0.22288    1.000
    N4503    N        0.89402    0.08695    0.15696    1.000
    Si4504   Si       0.81352    0.08776    0.30739    1.000
    N4505    N        0.84802    0.08157    0.28225    1.000
    N4506    N        0.75343    0.11725    0.27073    1.000
    N4507    N        0.82820    0.07440    0.34654    1.000
    Si4508   Si       0.74645    0.07567    0.27744    1.000
    Si4509   Si       0.86631    0.09000    0.36103    1.000
    Si4510   Si       0.88255    0.10651    0.28394    1.000
    N4511    N        0.89436    0.09732    0.32810    1.000
    N4512    N        0.92314    0.09711    0.27131    1.000
    Si4513   Si       0.93608    0.09249    0.31601    1.000
    N4514    N        0.80311    0.08252    0.41430    1.000
    N4515    N        0.85313    0.06653    0.46200    1.000
    Si4516   Si       0.78668    0.12083    0.41388    1.000
    N4517    N        0.74150    0.11384    0.41199    1.000
    Si4518   Si       0.74227    0.06568    0.46734    1.000
    N4519    N        0.78259    0.06805    0.47950    1.000
    Si4520   Si       0.88440    0.08563    0.43662    1.000
    N4521    N        0.92537    0.08290    0.45284    1.000
    N4522    N        0.98526    0.07957    0.41018    1.000
    N4523    N        0.92770    0.12652    0.39189    1.000
    Si4524   Si       0.95039    0.10454    0.42256    1.000
    Si4525   Si       0.93610    0.08035    0.49512    1.000
    N4526    N        0.77214    0.10023    0.54200    1.000
    Si4527   Si       0.83836    0.09215    0.57219    1.000
    Si4528   Si       0.77459    0.11625    0.58114    1.000
    N4529    N        0.80646    0.07231    0.59464    1.000
    N4530    N        0.83288    0.07276    0.53216    1.000
    Si4531   Si       0.79072    0.06622    0.52271    1.000
    N4532    N        0.87889    0.10160    0.58356    1.000
    N4533    N        0.89740    0.09307    0.51542    1.000
    Si4534   Si       0.97116    0.10964    0.54693    1.000
    N4535    N        0.97184    0.10153    0.50351    1.000
    N4536    N        0.98139    0.07225    0.56441    1.000
    Si4537   Si       0.89253    0.12300    0.54731    1.000
    N4538    N        0.76853    0.11503    0.62495    1.000
    Si4539   Si       0.77670    0.11615    0.71336    1.000
    Si4540   Si       0.80554    0.09539    0.64184    1.000
    N4541    N        0.85016    0.09116    0.64834    1.000
    N4542    N        0.75172    0.07993    0.71860    1.000
    Si4543   Si       0.84985    0.12057    0.68339    1.000
    N4544    N        0.86188    0.08729    0.70968    1.000
    N4545    N        0.80506    0.12443    0.68223    1.000
    N4546    N        0.98852    0.09936    0.73699    1.000
    Si4547   Si       0.98859    0.07495    0.70226    1.000
    N4548    N        0.96056    0.09142    0.67432    1.000
    Si4549   Si       0.88741    0.09494    0.62475    1.000
    N4550    N        0.90976    0.12693    0.64699    1.000
    Si4551   Si       0.78561    0.10016    0.78464    1.000
    N4552    N        0.81241    0.11597    0.81492    1.000
    Si4553   Si       0.84928    0.11938    0.75171    1.000
    Si4554   Si       0.85530    0.12023    0.82197    1.000
    N4555    N        0.74138    0.10488    0.78838    1.000
    N4556    N        0.80544    0.11406    0.74763    1.000
    N4557    N        0.86903    0.08428    0.77174    1.000
    N4558    N        0.87169    0.08494    0.83931    1.000
    N4559    N        0.92941    0.07083    0.80719    1.000
    Si4560   Si       0.94679    0.10326    0.82518    1.000
    N4561    N        0.93879    0.09385    0.86645    1.000
    N4562    N        0.98769    0.10760    0.81067    1.000
    Si4563   Si       0.89876    0.07972    0.87520    1.000
    Si4564   Si       0.77561    0.09852    0.97489    1.000
    Si4565   Si       0.75071    0.10910    0.91914    1.000
    N4566    N        0.76693    0.07372    0.93803    1.000
    N4567    N        0.80748    0.12603    0.96581    1.000
    N4568    N        0.91976    0.08868    0.98156    1.000
    N4569    N        0.95968    0.11056    0.93342    1.000
    Si4570   Si       0.97275    0.09748    0.89387    1.000
    N4571    N        0.88631    0.09691    0.91163    1.000
    Si4572   Si       0.96020    0.08299    0.96635    1.000
    Si4573   Si       0.88603    0.08732    0.95445    1.000
    N4574    N        0.78438    0.16335    0.06867    1.000
    Si4575   Si       0.75350    0.14636    0.04507    1.000
    Si4576   Si       0.79168    0.16297    0.11197    1.000
    N4577    N        0.83190    0.17912    0.00175    1.000
    N4578    N        0.86193    0.16417    0.06393    1.000
    N4579    N        0.76202    0.13311    0.12318    1.000
    Si4580   Si       0.86518    0.17353    0.10507    1.000
    N4581    N        0.97161    0.16028    0.10560    1.000
    N4582    N        0.90441    0.15224    0.11365    1.000
    Si4583   Si       0.93429    0.18367    0.11590    1.000
    N4584    N        0.83332    0.15284    0.12313    1.000
    N4585    N        0.79159    0.15159    0.17812    1.000
    Si4586   Si       0.83142    0.13908    0.16366    1.000
    N4587    N        0.81342    0.13954    0.23750    1.000
    Si4588   Si       0.85584    0.13720    0.22845    1.000
    Si4589   Si       0.74874    0.13789    0.16731    1.000
    N4590    N        0.86582    0.15307    0.18918    1.000
    N4591    N        0.92548    0.13538    0.20926    1.000
    Si4592   Si       0.90647    0.17400    0.19208    1.000
    Si4593   Si       0.82093    0.14691    0.34862    1.000
    Si4594   Si       0.78682    0.14689    0.27254    1.000
    N4595    N        0.75540    0.17987    0.26100    1.000
    N4596    N        0.80566    0.13139    0.30963    1.000
    N4597    N        0.85456    0.13096    0.37230    1.000
    Si4598   Si       0.75500    0.17077    0.37106    1.000
    N4599    N        0.87514    0.14594    0.26524    1.000
    Si4600   Si       0.94152    0.15278    0.35971    1.000
    N4601    N        0.93803    0.17324    0.26792    1.000
    N4602    N        0.90464    0.17391    0.35429    1.000
    Si4603   Si       0.94529    0.13234    0.25018    1.000
    N4604    N        0.95834    0.12994    0.32576    1.000
    N4605    N        0.98817    0.13159    0.26009    1.000
    N4606    N        0.78829    0.14225    0.37679    1.000
    Si4607   Si       0.79814    0.17299    0.47772    1.000
    N4608    N        0.78006    0.14660    0.45054    1.000
    N4609    N        0.83808    0.18222    0.46752    1.000
    Si4610   Si       0.88882    0.15066    0.39215    1.000
    N4611    N        0.87817    0.12713    0.43467    1.000
    N4612    N        0.97497    0.17186    0.37685    1.000
    Si4613   Si       0.97531    0.17486    0.42008    1.000
    Si4614   Si       0.87538    0.16835    0.45415    1.000
    N4615    N        0.97026    0.13732    0.44249    1.000
    N4616    N        0.75654    0.15815    0.58077    1.000
    Si4617   Si       0.82423    0.16431    0.55266    1.000
    N4618    N        0.79548    0.17032    0.52100    1.000
    Si4619   Si       0.75429    0.17528    0.53963    1.000
    N4620    N        0.81842    0.13006    0.57595    1.000
    N4621    N        0.86768    0.15870    0.53927    1.000
    Si4622   Si       0.94180    0.16601    0.58886    1.000
    N4623    N        0.93505    0.13498    0.55845    1.000
    N4624    N        0.90464    0.18175    0.60638    1.000
    N4625    N        0.96582    0.14440    0.61866    1.000
    Si4626   Si       0.75440    0.15498    0.62468    1.000
    N4627    N        0.75579    0.15389    0.71505    1.000
    N4628    N        0.85119    0.15847    0.65439    1.000
    N4629    N        0.78817    0.17852    0.63544    1.000
    Si4630   Si       0.81206    0.16602    0.66933    1.000
    N4631    N        0.85909    0.14987    0.71982    1.000
    N4632    N        0.91566    0.18362    0.68185    1.000
    Si4633   Si       0.95411    0.13145    0.65868    1.000
    Si4634   Si       0.97239    0.13954    0.73215    1.000
    N4635    N        0.97720    0.15408    0.69011    1.000
    N4636    N        0.93177    0.15046    0.74247    1.000
    Si4637   Si       0.89956    0.16800    0.71966    1.000
    Si4638   Si       0.89422    0.16694    0.64569    1.000
    N4639    N        0.76947    0.16479    0.78629    1.000
    Si4640   Si       0.81263    0.16251    0.80039    1.000
    N4641    N        0.81172    0.17757    0.84448    1.000
    N4642    N        0.75133    0.13711    0.84589    1.000
    Si4643   Si       0.77696    0.16369    0.86661    1.000
    N4644    N        0.85375    0.14837    0.78578    1.000
    Si4645   Si       0.74533    0.17701    0.75148    1.000
    Si4646   Si       0.84797    0.17600    0.87044    1.000
    Si4647   Si       0.94831    0.16654    0.77997    1.000
    N4648    N        0.87393    0.14939    0.84874    1.000
    N4649    N        0.93015    0.14153    0.81291    1.000
    Si4650   Si       0.90299    0.17262    0.82741    1.000
    N4651    N        0.84344    0.15459    0.90810    1.000
    Si4652   Si       0.80694    0.15372    0.93241    1.000
    N4653    N        0.77998    0.13779    0.90275    1.000
    Si4654   Si       0.83875    0.13699    0.99387    1.000
    N4655    N        0.74158    0.12943    0.95674    1.000
    N4656    N        0.91354    0.16341    0.91517    1.000
    N4657    N        0.87394    0.12844    0.96781    1.000
    N4658    N        0.98328    0.17791    0.92404    1.000
    Si4659   Si       0.91108    0.13169    0.99256    1.000
    Si4660   Si       0.95016    0.15425    0.93680    1.000
    Si4661   Si       0.87908    0.13801    0.92246    1.000
    N4662    N        0.94092    0.16064    0.97923    1.000
    N4663    N        0.82608    0.22624    0.05434    1.000
    Si4664   Si       0.84973    0.19697    0.03672    1.000
    Si4665   Si       0.76530    0.23343    0.10566    1.000
    N4666    N        0.75985    0.23470    0.06155    1.000
    N4667    N        0.86479    0.21689    0.11063    1.000
    Si4668   Si       0.92594    0.22760    0.04960    1.000
    N4669    N        0.93894    0.21996    0.09079    1.000
    N4670    N        0.96119    0.21803    0.02440    1.000
    N4671    N        0.88873    0.21765    0.03050    1.000
    Si4672   Si       0.77548    0.19360    0.17671    1.000
    N4673    N        0.79636    0.21245    0.20992    1.000
    N4674    N        0.77530    0.19898    0.13266    1.000
    Si4675   Si       0.77440    0.21921    0.24704    1.000
    Si4676   Si       0.94906    0.22979    0.17187    1.000
    N4677    N        0.92911    0.19251    0.15907    1.000
    N4678    N        0.89784    0.20142    0.22436    1.000
    Si4679   Si       0.88802    0.24316    0.21304    1.000
    Si4680   Si       0.79778    0.21240    0.32546    1.000
    N4681    N        0.79198    0.23217    0.28708    1.000
    N4682    N        0.76112    0.19002    0.33211    1.000
    N4683    N        0.83192    0.18601    0.33228    1.000
    N4684    N        0.86642    0.23189    0.36425    1.000
    Si4685   Si       0.87515    0.19984    0.33534    1.000
    N4686    N        0.88915    0.21295    0.29759    1.000
    Si4687   Si       0.96689    0.20221    0.27526    1.000
    N4688    N        0.98043    0.20924    0.31771    1.000
    Si4689   Si       0.89438    0.18473    0.26436    1.000
    Si4690   Si       0.74821    0.20239    0.44285    1.000
    Si4691   Si       0.82617    0.22862    0.47363    1.000
    N4692    N        0.75866    0.20312    0.40013    1.000
    N4693    N        0.78253    0.21439    0.46832    1.000
    N4694    N        0.88377    0.18865    0.41384    1.000
    Si4695   Si       0.87779    0.22950    0.40701    1.000
    N4696    N        0.90194    0.18379    0.48275    1.000
    Si4697   Si       0.93655    0.21051    0.47623    1.000
    N4698    N        0.95285    0.20857    0.43371    1.000
    N4699    N        0.84950    0.22543    0.51435    1.000
    N4700    N        0.81851    0.20165    0.57465    1.000
    Si4701   Si       0.80070    0.21208    0.61110    1.000
    N4702    N        0.76394    0.23449    0.60310    1.000
    Si4703   Si       0.83130    0.23583    0.55198    1.000
    N4704    N        0.91085    0.21580    0.54522    1.000
    Si4705   Si       0.89706    0.22110    0.58752    1.000
    Si4706   Si       0.95206    0.22040    0.54355    1.000
    N4707    N        0.97007    0.19730    0.57557    1.000
    Si4708   Si       0.88201    0.19540    0.51912    1.000
    N4709    N        0.96542    0.20560    0.50523    1.000
    N4710    N        0.92691    0.24460    0.60681    1.000
    N4711    N        0.81442    0.19782    0.69796    1.000
    N4712    N        0.82506    0.23390    0.64184    1.000
    N4713    N        0.75942    0.23615    0.67741    1.000
    Si4714   Si       0.80258    0.23933    0.68201    1.000
    Si4715   Si       0.84199    0.19152    0.72852    1.000
    N4716    N        0.75443    0.21874    0.74773    1.000
    N4717    N        0.95902    0.21585    0.72782    1.000
    N4718    N        0.88442    0.20595    0.73834    1.000
    Si4719   Si       0.95607    0.19488    0.69024    1.000
    N4720    N        0.97566    0.22057    0.66217    1.000
    N4721    N        0.82319    0.20260    0.76725    1.000
    Si4722   Si       0.79121    0.23396    0.76130    1.000
    Si4723   Si       0.86463    0.21607    0.77890    1.000
    N4724    N        0.87401    0.20660    0.81816    1.000
    N4725    N        0.92861    0.20464    0.78917    1.000
    Si4726   Si       0.93772    0.22978    0.82649    1.000
    N4727    N        0.93024    0.19705    0.85372    1.000
    Si4728   Si       0.87534    0.23789    0.85148    1.000
    Si4729   Si       0.92232    0.22603    0.74943    1.000
    Si4730   Si       0.77608    0.22315    0.91656    1.000
    Si4731   Si       0.81626    0.21078    0.97606    1.000
    N4732    N        0.75961    0.20075    0.88193    1.000
    N4733    N        0.79624    0.19422    0.94181    1.000
    N4734    N        0.85137    0.23526    0.96902    1.000
    N4735    N        0.74595    0.24425    0.93739    1.000
    N4736    N        0.78750    0.23585    0.99506    1.000
    Si4737   Si       0.98016    0.22381    0.92600    1.000
    Si4738   Si       0.96922    0.19120    0.98973    1.000
    N4739    N        0.98462    0.22817    0.96883    1.000
    N4740    N        0.93789    0.23225    0.91465    1.000
    Si4741   Si       0.91395    0.20074    0.89551    1.000
    N4742    N        0.87339    0.20988    0.88449    1.000
    N4743    N        0.79171    0.29121    0.02606    1.000
    N4744    N        0.80227    0.25711    0.10989    1.000
    N4745    N        0.86162    0.28387    0.08506    1.000
    Si4746   Si       0.79411    0.24756    0.03438    1.000
    Si4747   Si       0.84021    0.24729    0.09261    1.000
    N4748    N        0.86062    0.28293    0.01609    1.000
    Si4749   Si       0.82904    0.30759    0.00094    1.000
    N4750    N        0.98300    0.28506    0.01200    1.000
    Si4751   Si       0.94002    0.29061    0.00719    1.000
    N4752    N        0.92288    0.27235    0.04277    1.000
    Si4753   Si       0.88435    0.29249    0.05065    1.000
    Si4754   Si       0.97236    0.24856    0.10014    1.000
    Si4755   Si       0.74675    0.28004    0.20320    1.000
    Si4756   Si       0.79521    0.28817    0.14082    1.000
    N4757    N        0.85324    0.25704    0.18912    1.000
    Si4758   Si       0.81208    0.25299    0.20501    1.000
    N4759    N        0.78303    0.26951    0.17891    1.000
    N4760    N        0.81230    0.27697    0.24202    1.000
    N4761    N        0.74519    0.24683    0.23068    1.000
    Si4762   Si       0.86418    0.29539    0.17032    1.000
    Si4763   Si       0.93656    0.28968    0.16301    1.000
    N4764    N        0.92214    0.25905    0.19101    1.000
    N4765    N        0.96419    0.26087    0.14132    1.000
    Si4766   Si       0.80662    0.27412    0.28648    1.000
    N4767    N        0.83674    0.28103    0.31570    1.000
    Si4768   Si       0.83710    0.26359    0.35650    1.000
    N4769    N        0.79718    0.24207    0.35791    1.000
    N4770    N        0.97077    0.27751    0.34547    1.000
    N4771    N        0.90296    0.28468    0.31477    1.000
    Si4772   Si       0.90546    0.25210    0.28522    1.000
    Si4773   Si       0.97612    0.25169    0.31121    1.000
    N4774    N        0.94793    0.24275    0.27729    1.000
    N4775    N        0.88792    0.26739    0.24992    1.000
    Si4776   Si       0.76935    0.25945    0.46179    1.000
    Si4777   Si       0.82917    0.28769    0.43864    1.000
    N4778    N        0.81109    0.27244    0.47867    1.000
    N4779    N        0.78760    0.26714    0.42195    1.000
    N4780    N        0.84688    0.29500    0.38655    1.000
    N4781    N        0.75191    0.28446    0.49494    1.000
    Si4782   Si       0.76798    0.24552    0.39033    1.000
    N4783    N        0.84925    0.24232    0.43706    1.000
    Si4784   Si       0.88753    0.29727    0.40407    1.000
    N4785    N        0.90926    0.25893    0.40871    1.000
    Si4786   Si       0.94698    0.25145    0.42947    1.000
    N4787    N        0.93509    0.25548    0.47372    1.000
    N4788    N        0.98775    0.29372    0.48586    1.000
    N4789    N        0.97989    0.27896    0.41759    1.000
    Si4790   Si       0.99501    0.29447    0.37876    1.000
    Si4791   Si       0.78931    0.28752    0.51455    1.000
    N4792    N        0.79397    0.25722    0.54243    1.000
    Si4793   Si       0.75587    0.24946    0.56357    1.000
    N4794    N        0.81453    0.29447    0.60642    1.000
    Si4795   Si       0.84403    0.26680    0.62071    1.000
    N4796    N        0.86184    0.24806    0.58377    1.000
    N4797    N        0.96482    0.26400    0.54685    1.000
    Si4798   Si       0.94565    0.27689    0.58539    1.000
    Si4799   Si       0.95049    0.28025    0.50575    1.000
    N4800    N        0.97226    0.28170    0.61961    1.000
    Si4801   Si       0.74086    0.25099    0.63837    1.000
    N4802    N        0.74662    0.29412    0.63233    1.000
    N4803    N        0.80577    0.25810    0.72760    1.000
    Si4804   Si       0.82753    0.29244    0.71022    1.000
    N4805    N        0.80714    0.28443    0.67312    1.000
    Si4806   Si       0.95128    0.25209    0.64346    1.000
    N4807    N        0.87281    0.28896    0.64337    1.000
    N4808    N        0.92760    0.26707    0.67501    1.000
    N4809    N        0.86992    0.28179    0.71315    1.000
    Si4810   Si       0.89581    0.29549    0.67784    1.000
    Si4811   Si       0.76191    0.28447    0.81252    1.000
    N4812    N        0.83753    0.25914    0.84802    1.000
    N4813    N        0.79339    0.25816    0.79628    1.000
    Si4814   Si       0.83186    0.27365    0.80833    1.000
    N4815    N        0.77531    0.29339    0.85468    1.000
    N4816    N        0.85922    0.25957    0.77916    1.000
    N4817    N        0.90974    0.26015    0.84253    1.000
    Si4818   Si       0.95431    0.28402    0.78200    1.000
    N4819    N        0.92250    0.26957    0.75671    1.000
    N4820    N        0.96946    0.25396    0.81257    1.000
    Si4821   Si       0.88219    0.28745    0.75452    1.000
    Si4822   Si       0.92690    0.30069    0.84661    1.000
    N4823    N        0.98875    0.27863    0.75672    1.000
    Si4824   Si       0.81148    0.28195    0.87677    1.000
    Si4825   Si       0.75027    0.25305    0.97992    1.000
    N4826    N        0.80959    0.25595    0.91100    1.000
    Si4827   Si       0.84237    0.26349    0.93747    1.000
    N4828    N        0.73720    0.29440    0.98140    1.000
    N4829    N        0.82644    0.30186    0.95715    1.000
    Si4830   Si       0.88189    0.24881    0.99829    1.000
    Si4831   Si       0.92183    0.26675    0.93420    1.000
    Si4832   Si       0.98279    0.29819    0.90483    1.000
    N4833    N        0.91737    0.26459    0.97865    1.000
    N4834    N        0.88161    0.27389    0.91828    1.000
    N4835    N        0.94517    0.30234    0.92906    1.000
    N4836    N        0.81251    0.33623    0.08271    1.000
    Si4837   Si       0.77748    0.34701    0.10665    1.000
    Si4838   Si       0.84652    0.32088    0.10472    1.000
    N4839    N        0.77419    0.35051    0.01497    1.000
    N4840    N        0.83811    0.34787    0.01436    1.000
    Si4841   Si       0.75465    0.31284    0.01958    1.000
    N4842    N        0.74560    0.35868    0.07768    1.000
    Si4843   Si       0.80648    0.35671    0.04472    1.000
    N4844    N        0.86839    0.35893    0.11298    1.000
    N4845    N        0.89344    0.33543    0.04922    1.000
    N4846    N        0.92973    0.36569    0.10834    1.000
    Si4847   Si       0.97384    0.36180    0.00424    1.000
    Si4848   Si       0.89703    0.36524    0.08048    1.000
    N4849    N        0.76092    0.31248    0.12998    1.000
    N4850    N        0.75328    0.31742    0.22558    1.000
    N4851    N        0.80833    0.35836    0.23818    1.000
    N4852    N        0.83239    0.30644    0.14457    1.000
    Si4853   Si       0.79219    0.31756    0.24633    1.000
    N4854    N        0.86280    0.32388    0.20499    1.000
    N4855    N        0.89920    0.30812    0.14690    1.000
    Si4856   Si       0.98523    0.34965    0.16910    1.000
    Si4857   Si       0.88118    0.30918    0.24205    1.000
    Si4858   Si       0.90344    0.35052    0.13947    1.000
    N4859    N        0.95487    0.32374    0.18135    1.000
    N4860    N        0.92117    0.32881    0.24421    1.000
    Si4861   Si       0.92798    0.34887    0.20607    1.000
    Si4862   Si       0.74981    0.33781    0.30004    1.000
    N4863    N        0.77948    0.30866    0.28699    1.000
    N4864    N        0.86176    0.33135    0.27340    1.000
    N4865    N        0.86467    0.34717    0.33803    1.000
    Si4866   Si       0.86540    0.31251    0.31171    1.000
    N4867    N        0.94647    0.33927    0.32056    1.000
    Si4868   Si       0.94168    0.34799    0.27853    1.000
    N4869    N        0.98351    0.35125    0.26567    1.000
    Si4870   Si       0.89337    0.35704    0.36870    1.000
    Si4871   Si       0.93436    0.30222    0.34005    1.000
    Si4872   Si       0.83385    0.33863    0.39124    1.000
    N4873    N        0.81535    0.32959    0.43203    1.000
    Si4874   Si       0.90471    0.32439    0.46733    1.000
    N4875    N        0.94047    0.32759    0.44091    1.000
    N4876    N        0.97985    0.33919    0.37934    1.000
    N4877    N        0.91505    0.31922    0.37686    1.000
    Si4878   Si       0.94566    0.35364    0.40568    1.000
    Si4879   Si       0.98045    0.31180    0.44573    1.000
    N4880    N        0.87416    0.30325    0.44554    1.000
    N4881    N        0.79959    0.32273    0.53735    1.000
    Si4882   Si       0.82582    0.32258    0.57405    1.000
    N4883    N        0.86353    0.33558    0.55112    1.000
    Si4884   Si       0.90475    0.33173    0.54196    1.000
    N4885    N        0.92397    0.31189    0.57742    1.000
    N4886    N        0.91693    0.30841    0.50718    1.000
    Si4887   Si       0.93166    0.35395    0.58942    1.000
    N4888    N        0.96965    0.35739    0.60721    1.000
    N4889    N        0.78481    0.34506    0.65030    1.000
    N4890    N        0.82168    0.33311    0.72092    1.000
    Si4891   Si       0.80444    0.35465    0.68811    1.000
    Si4892   Si       0.78815    0.30371    0.63918    1.000
    N4893    N        0.94956    0.34735    0.74326    1.000
    Si4894   Si       0.98915    0.35903    0.64911    1.000
    Si4895   Si       0.95098    0.33999    0.70077    1.000
    N4896    N        0.98262    0.32071    0.67876    1.000
    N4897    N        0.90980    0.33598    0.68284    1.000
    N4898    N        0.83725    0.31578    0.81648    1.000
    N4899    N        0.76908    0.32178    0.79062    1.000
    Si4900   Si       0.80280    0.34120    0.80792    1.000
    Si4901   Si       0.85409    0.34020    0.84885    1.000
    N4902    N        0.78902    0.35912    0.84615    1.000
    Si4903   Si       0.84958    0.35633    0.74575    1.000
    N4904    N        0.87934    0.33052    0.76046    1.000
    N4905    N        0.93908    0.31836    0.80678    1.000
    Si4906   Si       0.91870    0.34236    0.77466    1.000
    N4907    N        0.89343    0.32498    0.86070    1.000
    N4908    N        0.96389    0.30211    0.86732    1.000
    Si4909   Si       0.95568    0.35776    0.81902    1.000
    Si4910   Si       0.76260    0.33173    0.87388    1.000
    N4911    N        0.77521    0.32577    0.91689    1.000
    Si4912   Si       0.81732    0.33018    0.92669    1.000
    N4913    N        0.83730    0.31809    0.88909    1.000
    Si4914   Si       0.73920    0.31941    0.94534    1.000
    N4915    N        0.88861    0.34229    0.93234    1.000
    Si4916   Si       0.87956    0.31441    0.90166    1.000
    N4917    N        0.94259    0.33241    0.99050    1.000
    Si4918   Si       0.92862    0.33752    0.94955    1.000
    N4919    N        0.79742    0.39924    0.05129    1.000
    Si4920   Si       0.75439    0.39534    0.05552    1.000
    N4921    N        0.88155    0.39464    0.05242    1.000
    N4922    N        0.95658    0.40038    0.01762    1.000
    Si4923   Si       0.97106    0.37417    0.11201    1.000
    Si4924   Si       0.98577    0.41831    0.04338    1.000
    N4925    N        0.98883    0.39358    0.07885    1.000
    Si4926   Si       0.87725    0.36494    0.01877    1.000
    N4927    N        0.79074    0.38400    0.12624    1.000
    Si4928   Si       0.83772    0.38719    0.12951    1.000
    Si4929   Si       0.79154    0.40982    0.16178    1.000
    N4930    N        0.82970    0.38716    0.17228    1.000
    Si4931   Si       0.84075    0.36303    0.20906    1.000
    Si4932   Si       0.74527    0.41913    0.22288    1.000
    Si4933   Si       0.99291    0.37339    0.22981    1.000
    N4934    N        0.97228    0.39201    0.15321    1.000
    N4935    N        0.91012    0.37370    0.17397    1.000
    N4936    N        0.95415    0.38228    0.21635    1.000
    Si4937   Si       0.93963    0.40989    0.18415    1.000
    N4938    N        0.86864    0.38687    0.23254    1.000
    Si4939   Si       0.84157    0.38448    0.33492    1.000
    N4940    N        0.83534    0.38924    0.29307    1.000
    Si4941   Si       0.79856    0.38795    0.26956    1.000
    N4942    N        0.76405    0.37692    0.29419    1.000
    N4943    N        0.81003    0.36727    0.36750    1.000
    Si4944   Si       0.96547    0.36637    0.34715    1.000
    N4945    N        0.86887    0.41213    0.35520    1.000
    Si4946   Si       0.87344    0.37523    0.27422    1.000
    N4947    N        0.91461    0.38353    0.28121    1.000
    Si4948   Si       0.78128    0.39910    0.37542    1.000
    N4949    N        0.82960    0.39539    0.45871    1.000
    N4950    N        0.77824    0.39968    0.42137    1.000
    Si4951   Si       0.79765    0.36715    0.44635    1.000
    N4952    N        0.77273    0.35864    0.48069    1.000
    N4953    N        0.92878    0.38293    0.37212    1.000
    N4954    N        0.87065    0.35772    0.40498    1.000
    Si4955   Si       0.97591    0.41062    0.46105    1.000
    N4956    N        0.94554    0.40694    0.49224    1.000
    N4957    N        0.89145    0.36528    0.47329    1.000
    Si4958   Si       0.86838    0.38341    0.44015    1.000
    N4959    N        0.96335    0.38723    0.42604    1.000
    Si4960   Si       0.90528    0.40696    0.48179    1.000
    N4961    N        0.81811    0.38964    0.52590    1.000
    Si4962   Si       0.84693    0.37643    0.55812    1.000
    N4963    N        0.74707    0.37552    0.53579    1.000
    N4964    N        0.82415    0.36463    0.59238    1.000
    Si4965   Si       0.78716    0.36154    0.52264    1.000
    Si4966   Si       0.83471    0.41683    0.49574    1.000
    N4967    N        0.92730    0.36720    0.54831    1.000
    N4968    N        0.87525    0.40528    0.57190    1.000
    Si4969   Si       0.95165    0.40080    0.53581    1.000
    Si4970   Si       0.88554    0.41128    0.61416    1.000
    N4971    N        0.87572    0.42073    0.50890    1.000
    N4972    N        0.99033    0.38384    0.53912    1.000
    Si4973   Si       0.81699    0.38913    0.62834    1.000
    N4974    N        0.83299    0.37942    0.66676    1.000
    N4975    N        0.78046    0.38340    0.71042    1.000
    N4976    N        0.77655    0.40626    0.63099    1.000
    Si4977   Si       0.85766    0.40767    0.68743    1.000
    Si4978   Si       0.75113    0.37039    0.63516    1.000
    N4979    N        0.86291    0.39411    0.72767    1.000
    N4980    N        0.98220    0.40647    0.73060    1.000
    N4981    N        0.90695    0.37067    0.61780    1.000
    Si4982   Si       0.98375    0.40973    0.68604    1.000
    N4983    N        0.95615    0.37694    0.67475    1.000
    N4984    N        0.89692    0.40993    0.66958    1.000
    Si4985   Si       0.91439    0.37117    0.66020    1.000
    Si4986   Si       0.77383    0.40022    0.85229    1.000
    N4987    N        0.75527    0.38847    0.77327    1.000
    N4988    N        0.81929    0.36999    0.77719    1.000
    Si4989   Si       0.82935    0.40653    0.80061    1.000
    N4990    N        0.85565    0.38026    0.83297    1.000
    Si4991   Si       0.79159    0.39245    0.75085    1.000
    N4992    N        0.97159    0.38267    0.85046    1.000
    Si4993   Si       0.89054    0.40286    0.82097    1.000
    N4994    N        0.91864    0.37723    0.80185    1.000
    Si4995   Si       0.98812    0.36722    0.75352    1.000
    N4996    N        0.82746    0.37188    0.93569    1.000
    Si4997   Si       0.79759    0.40274    0.92669    1.000
    N4998    N        0.78515    0.40920    0.96642    1.000
    N4999    N        0.76769    0.40084    0.89498    1.000
    Si5000   Si       0.75795    0.38066    0.98687    1.000
    N5001    N        0.88196    0.41520    0.92992    1.000
    Si5002   Si       0.92453    0.41244    0.92602    1.000
    Si5003   Si       0.97039    0.41952    0.87270    1.000
    N5004    N        0.89377    0.38711    0.98589    1.000
    N5005    N        0.94390    0.37444    0.93022    1.000
    Si5006   Si       0.86867    0.37771    0.94705    1.000
    Si5007   Si       0.92595    0.41732    0.99352    1.000
    Si5008   Si       0.80831    0.44106    0.04609    1.000
    N5009    N        0.78712    0.45829    0.01400    1.000
    N5010    N        0.84973    0.45408    0.04431    1.000
    N5011    N        0.79279    0.45948    0.08248    1.000
    Si5012   Si       0.75138    0.46349    0.08554    1.000
    Si5013   Si       0.82336    0.46073    0.11292    1.000
    N5014    N        0.85149    0.42582    0.11027    1.000
    Si5015   Si       0.74990    0.48081    0.01327    1.000
    Si5016   Si       0.86446    0.46833    0.00600    1.000
    N5017    N        0.98269    0.46081    0.05247    1.000
    N5018    N        0.91326    0.44590    0.08187    1.000
    Si5019   Si       0.87389    0.43149    0.07266    1.000
    Si5020   Si       0.95143    0.46602    0.08520    1.000
    N5021    N        0.90623    0.45469    0.00610    1.000
    Si5022   Si       0.76175    0.46832    0.16449    1.000
    N5023    N        0.84361    0.44439    0.21363    1.000
    N5024    N        0.80257    0.45367    0.15179    1.000
    Si5025   Si       0.83161    0.46601    0.17927    1.000
    Si5026   Si       0.80926    0.46107    0.23901    1.000
    N5027    N        0.75796    0.42734    0.18196    1.000
    N5028    N        0.78538    0.42450    0.24501    1.000
    Si5029   Si       0.88145    0.42689    0.22564    1.000
    N5030    N        0.91167    0.44114    0.19596    1.000
    N5031    N        0.97787    0.44333    0.19076    1.000
    N5032    N        0.97006    0.45876    0.12504    1.000
    Si5033   Si       0.77073    0.46132    0.34299    1.000
    N5034    N        0.75312    0.44412    0.30874    1.000
    N5035    N        0.80124    0.43418    0.35832    1.000
    N5036    N        0.85545    0.47979    0.35450    1.000
    N5037    N        0.89231    0.44293    0.26536    1.000
    N5038    N        0.96083    0.44794    0.26412    1.000
    Si5039   Si       0.92745    0.42516    0.28101    1.000
    N5040    N        0.93524    0.43223    0.32306    1.000
    Si5041   Si       0.97871    0.43211    0.33158    1.000
    Si5042   Si       0.91150    0.42118    0.35694    1.000
    Si5043   Si       0.84219    0.44372    0.37276    1.000
    N5044    N        0.74099    0.46895    0.37228    1.000
    N5045    N        0.80809    0.45034    0.48279    1.000
    Si5046   Si       0.80657    0.43260    0.43863    1.000
    N5047    N        0.84222    0.44627    0.41646    1.000
    N5048    N        0.77716    0.46594    0.43054    1.000
    Si5049   Si       0.95829    0.42425    0.40310    1.000
    N5050    N        0.97004    0.44831    0.44020    1.000
    N5051    N        0.89427    0.42078    0.44317    1.000
    N5052    N        0.92488    0.44876    0.38702    1.000
    Si5053   Si       0.87802    0.46028    0.43723    1.000
    N5054    N        0.79731    0.46295    0.59923    1.000
    Si5055   Si       0.84064    0.46243    0.60082    1.000
    N5056    N        0.86732    0.47095    0.56395    1.000
    N5057    N        0.93328    0.43682    0.55161    1.000
    Si5058   Si       0.94578    0.46105    0.58770    1.000
    Si5059   Si       0.88957    0.43656    0.54542    1.000
    N5060    N        0.98802    0.45002    0.59191    1.000
    N5061    N        0.91527    0.44431    0.61675    1.000
    N5062    N        0.84566    0.42489    0.62392    1.000
    Si5063   Si       0.76648    0.44927    0.62922    1.000
    N5064    N        0.84221    0.44589    0.69811    1.000
    N5065    N        0.77788    0.47295    0.66748    1.000
    Si5066   Si       0.92156    0.44591    0.66130    1.000
    Si5067   Si       0.98194    0.47545    0.69313    1.000
    N5068    N        0.96414    0.44459    0.66703    1.000
    N5069    N        0.95645    0.47090    0.72811    1.000
    Si5070   Si       0.76663    0.46123    0.82576    1.000
    Si5071   Si       0.78866    0.46747    0.76619    1.000
    N5072    N        0.75126    0.45343    0.78464    1.000
    N5073    N        0.81145    0.43084    0.75934    1.000
    N5074    N        0.79672    0.42166    0.82550    1.000
    Si5075   Si       0.85361    0.43535    0.74355    1.000
    Si5076   Si       0.89348    0.45977    0.79659    1.000
    N5077    N        0.89388    0.44306    0.83989    1.000
    N5078    N        0.93331    0.44811    0.78375    1.000
    Si5079   Si       0.96438    0.43944    0.75638    1.000
    N5080    N        0.88019    0.47201    0.75056    1.000
    N5081    N        0.98322    0.45291    0.84891    1.000
    N5082    N        0.86721    0.42425    0.78677    1.000
    N5083    N        0.84235    0.45716    0.96995    1.000
    N5084    N        0.81183    0.44328    0.91721    1.000
    Si5085   Si       0.79841    0.45134    0.96992    1.000
    Si5086   Si       0.85468    0.44843    0.92760    1.000
    Si5087   Si       0.78303    0.47537    0.90718    1.000
    N5088    N        0.76847    0.47778    0.95319    1.000
    N5089    N        0.94466    0.43508    0.95889    1.000
    Si5090   Si       0.96784    0.47066    0.95213    1.000
    Si5091   Si       0.90603    0.46598    0.87364    1.000
    N5092    N        0.93253    0.43524    0.89077    1.000
    N5093    N        0.87016    0.47741    0.89729    1.000
    N5094    N        0.83339    0.50398    0.10774    1.000
    N5095    N        0.75952    0.52110    0.00222    1.000
    N5096    N        0.82844    0.52969    0.03951    1.000
    N5097    N        0.77736    0.54502    0.06840    1.000
    Si5098   Si       0.81725    0.53660    0.08281    1.000
    N5099    N        0.87887    0.51249    0.00203    1.000
    N5100    N        0.94544    0.51358    0.02905    1.000
    N5101    N        0.94540    0.50907    0.09634    1.000
    Si5102   Si       0.98552    0.49582    0.02537    1.000
    Si5103   Si       0.91877    0.49717    0.99947    1.000
    N5104    N        0.80571    0.49111    0.20466    1.000
    Si5105   Si       0.75781    0.51625    0.22487    1.000
    Si5106   Si       0.85747    0.52274    0.14017    1.000
    Si5107   Si       0.81816    0.53201    0.20100    1.000
    N5108    N        0.74173    0.49677    0.18967    1.000
    Si5109   Si       0.96494    0.50137    0.13596    1.000
    N5110    N        0.86664    0.48860    0.16420    1.000
    N5111    N        0.89818    0.50193    0.22824    1.000
    N5112    N        0.93220    0.51157    0.16568    1.000
    Si5113   Si       0.90557    0.48384    0.18746    1.000
    Si5114   Si       0.80256    0.50466    0.28718    1.000
    N5115    N        0.78387    0.50006    0.32674    1.000
    N5116    N        0.77149    0.49244    0.25782    1.000
    Si5117   Si       0.77371    0.53503    0.35230    1.000
    N5118    N        0.83595    0.48185    0.26855    1.000
    Si5119   Si       0.87666    0.51223    0.33744    1.000
    N5120    N        0.96766    0.52127    0.27536    1.000
    N5121    N        0.89584    0.50655    0.29799    1.000
    N5122    N        0.91023    0.52229    0.36352    1.000
    Si5123   Si       0.87892    0.48580    0.26319    1.000
    Si5124   Si       0.98381    0.48247    0.28093    1.000
    Si5125   Si       0.92811    0.53751    0.29107    1.000
    N5126    N        0.75041    0.50526    0.48062    1.000
    Si5127   Si       0.75927    0.49332    0.40379    1.000
    N5128    N        0.81509    0.51809    0.45726    1.000
    N5129    N        0.78831    0.52393    0.39243    1.000
    Si5130   Si       0.84892    0.51735    0.48232    1.000
    Si5131   Si       0.78670    0.48563    0.46669    1.000
    Si5132   Si       0.90833    0.50834    0.48354    1.000
    N5133    N        0.87447    0.48222    0.47604    1.000
    N5134    N        0.96455    0.50682    0.40206    1.000
    Si5135   Si       0.97088    0.49345    0.44320    1.000
    N5136    N        0.95101    0.50986    0.47764    1.000
    Si5137   Si       0.92584    0.49200    0.39026    1.000
    N5138    N        0.89684    0.49746    0.42165    1.000
    Si5139   Si       0.77928    0.50278    0.58782    1.000
    N5140    N        0.81508    0.52346    0.58018    1.000
    N5141    N        0.84873    0.52685    0.52318    1.000
    N5142    N        0.75133    0.49264    0.55688    1.000
    Si5143   Si       0.74749    0.51636    0.52224    1.000
    Si5144   Si       0.84323    0.53202    0.61162    1.000
    Si5145   Si       0.87952    0.51093    0.54920    1.000
    N5146    N        0.93884    0.50405    0.59602    1.000
    N5147    N        0.91505    0.50624    0.52659    1.000
    Si5148   Si       0.96014    0.51247    0.52164    1.000
    Si5149   Si       0.91041    0.53304    0.61068    1.000
    N5150    N        0.76729    0.52308    0.62231    1.000
    N5151    N        0.85457    0.49380    0.62634    1.000
    Si5152   Si       0.75352    0.50889    0.66229    1.000
    N5153    N        0.84010    0.51337    0.68944    1.000
    N5154    N        0.79743    0.48832    0.73096    1.000
    Si5155   Si       0.80869    0.53136    0.73237    1.000
    Si5156   Si       0.81374    0.47887    0.69279    1.000
    Si5157   Si       0.91596    0.48569    0.72749    1.000
    Si5158   Si       0.87370    0.50209    0.66476    1.000
    N5159    N        0.90511    0.48014    0.68511    1.000
    Si5160   Si       0.79964    0.51418    0.83705    1.000
    N5161    N        0.79873    0.49116    0.80098    1.000
    N5162    N        0.83643    0.52986    0.85553    1.000
    N5163    N        0.78805    0.48164    0.86333    1.000
    N5164    N        0.89145    0.50288    0.80622    1.000
    Si5165   Si       0.92295    0.52642    0.82750    1.000
    Si5166   Si       0.87525    0.51342    0.76737    1.000
    N5167    N        0.93194    0.50062    0.86143    1.000
    N5168    N        0.91227    0.52543    0.74643    1.000
    Si5169   Si       0.84418    0.51490    0.89654    1.000
    N5170    N        0.80597    0.51297    0.91850    1.000
    Si5171   Si       0.78170    0.52313    0.95760    1.000
    Si5172   Si       0.97277    0.48814    0.87431    1.000
    N5173    N        0.93994    0.50204    0.96246    1.000
    N5174    N        0.83320    0.57251    0.10219    1.000
    N5175    N        0.76061    0.58278    0.01555    1.000
    Si5176   Si       0.75222    0.57925    0.06043    1.000
    Si5177   Si       0.79039    0.54529    0.02022    1.000
    N5178    N        0.86315    0.58394    0.01150    1.000
    Si5179   Si       0.86763    0.54281    0.02738    1.000
    Si5180   Si       0.87989    0.57340    0.09333    1.000
    N5181    N        0.95939    0.57300    0.07667    1.000
    N5182    N        0.89338    0.54756    0.06027    1.000
    Si5183   Si       0.98563    0.56875    0.11342    1.000
    Si5184   Si       0.93658    0.53781    0.06433    1.000
    N5185    N        0.84693    0.54681    0.23112    1.000
    N5186    N        0.78263    0.55102    0.21834    1.000
    Si5187   Si       0.82298    0.58429    0.14393    1.000
    N5188    N        0.82686    0.54627    0.16238    1.000
    Si5189   Si       0.77942    0.59086    0.20485    1.000
    N5190    N        0.88784    0.55197    0.12985    1.000
    Si5191   Si       0.91969    0.55539    0.15859    1.000
    Si5192   Si       0.88903    0.54421    0.23046    1.000
    N5193    N        0.95597    0.57558    0.14657    1.000
    N5194    N        0.90755    0.56682    0.19909    1.000
    Si5195   Si       0.82263    0.57506    0.32100    1.000
    N5196    N        0.77907    0.57593    0.34173    1.000
    N5197    N        0.80855    0.54586    0.28939    1.000
    Si5198   Si       0.81769    0.56969    0.25461    1.000
    N5199    N        0.85441    0.55022    0.33927    1.000
    N5200    N        0.84068    0.59690    0.28585    1.000
    N5201    N        0.90385    0.56428    0.26608    1.000
    N5202    N        0.94341    0.55897    0.32416    1.000
    Si5203   Si       0.98038    0.58141    0.32811    1.000
    Si5204   Si       0.93228    0.55904    0.36827    1.000
    N5205    N        0.99355    0.59335    0.28539    1.000
    N5206    N        0.79950    0.58236    0.43617    1.000
    N5207    N        0.85246    0.55451    0.40794    1.000
    Si5208   Si       0.81398    0.54225    0.42285    1.000
    Si5209   Si       0.86225    0.58409    0.37245    1.000
    Si5210   Si       0.75672    0.59386    0.44324    1.000
    Si5211   Si       0.88720    0.53984    0.42849    1.000
    N5212    N        0.97760    0.57062    0.37660    1.000
    N5213    N        0.88409    0.54561    0.47170    1.000
    Si5214   Si       0.88906    0.58761    0.48659    1.000
    N5215    N        0.91962    0.56411    0.41105    1.000
    N5216    N        0.98709    0.59594    0.44203    1.000
    N5217    N        0.83497    0.58645    0.55371    1.000
    N5218    N        0.77679    0.54921    0.53093    1.000
    Si5219   Si       0.75544    0.58580    0.52222    1.000
    N5220    N        0.75449    0.58527    0.60598    1.000
    Si5221   Si       0.81906    0.54857    0.54453    1.000
    Si5222   Si       0.87699    0.58301    0.56484    1.000
    N5223    N        0.96721    0.54906    0.54287    1.000
    N5224    N        0.93716    0.56558    0.60777    1.000
    N5225    N        0.90348    0.59004    0.53120    1.000
    Si5226   Si       0.97184    0.54571    0.58663    1.000
    N5227    N        0.87897    0.54177    0.58158    1.000
    Si5228   Si       0.77986    0.56397    0.63625    1.000
    N5229    N        0.82332    0.55560    0.64092    1.000
    N5230    N        0.81126    0.56948    0.70975    1.000
    Si5231   Si       0.84095    0.55661    0.68045    1.000
    N5232    N        0.75843    0.55035    0.67621    1.000
    Si5233   Si       0.74777    0.56251    0.71570    1.000
    Si5234   Si       0.91034    0.57342    0.67079    1.000
    N5235    N        0.98451    0.55603    0.74462    1.000
    N5236    N        0.87574    0.58088    0.69714    1.000
    N5237    N        0.94206    0.56636    0.69697    1.000
    Si5238   Si       0.98201    0.55524    0.70124    1.000
    N5239    N        0.89415    0.53755    0.65053    1.000
    Si5240   Si       0.83383    0.57963    0.77591    1.000
    Si5241   Si       0.76216    0.55772    0.78689    1.000
    N5242    N        0.85091    0.58606    0.81634    1.000
    N5243    N        0.77062    0.54489    0.82942    1.000
    N5244    N        0.79275    0.58949    0.78460    1.000
    Si5245   Si       0.74759    0.56571    0.86054    1.000
    N5246    N        0.84159    0.54067    0.76108    1.000
    N5247    N        0.76963    0.54242    0.74889    1.000
    Si5248   Si       0.86292    0.56426    0.85524    1.000
    Si5249   Si       0.93060    0.59411    0.85883    1.000
    N5250    N        0.95071    0.54554    0.80166    1.000
    N5251    N        0.90671    0.56097    0.84854    1.000
    N5252    N        0.97334    0.58466    0.85384    1.000
    Si5253   Si       0.98258    0.57525    0.81212    1.000
    N5254    N        0.92187    0.59523    0.76097    1.000
    Si5255   Si       0.94151    0.55480    0.75956    1.000
    N5256    N        0.74638    0.54943    0.94696    1.000
    N5257    N        0.80967    0.55312    0.97780    1.000
    Si5258   Si       0.83569    0.58851    0.97603    1.000
    N5259    N        0.76968    0.58911    0.88995    1.000
    Si5260   Si       0.74154    0.58704    0.92537    1.000
    N5261    N        0.97219    0.54798    0.91588    1.000
    N5262    N        0.87198    0.54609    0.90659    1.000
    N5263    N        0.91520    0.56847    0.95760    1.000
    Si5264   Si       0.94945    0.54223    0.95248    1.000
    Si5265   Si       0.88996    0.58053    0.92364    1.000
    N5266    N        0.97432    0.57187    0.97521    1.000
    N5267    N        0.76447    0.61119    0.08452    1.000
    N5268    N        0.82611    0.63984    0.05213    1.000
    Si5269   Si       0.79314    0.64337    0.08171    1.000
    Si5270   Si       0.83190    0.65017    0.00942    1.000
    Si5271   Si       0.85643    0.64900    0.08214    1.000
    N5272    N        0.82572    0.64778    0.11314    1.000
    N5273    N        0.75097    0.65682    0.00908    1.000
    N5274    N        0.88347    0.61592    0.07655    1.000
    Si5275   Si       0.96186    0.60876    0.04987    1.000
    Si5276   Si       0.88818    0.61419    0.03200    1.000
    N5277    N        0.92916    0.60463    0.02103    1.000
    N5278    N        0.97130    0.64918    0.06388    1.000
    N5279    N        0.87560    0.64818    0.00490    1.000
    Si5280   Si       0.98981    0.65144    0.10277    1.000
    N5281    N        0.85328    0.61058    0.16309    1.000
    Si5282   Si       0.84626    0.62123    0.20492    1.000
    Si5283   Si       0.74669    0.63506    0.16871    1.000
    N5284    N        0.81238    0.60788    0.22981    1.000
    N5285    N        0.74581    0.61611    0.21110    1.000
    N5286    N        0.78726    0.60507    0.16394    1.000
    Si5287   Si       0.84402    0.65286    0.15131    1.000
    Si5288   Si       0.91722    0.60772    0.21360    1.000
    N5289    N        0.87924    0.61881    0.23310    1.000
    Si5290   Si       0.98987    0.60435    0.23440    1.000
    N5291    N        0.94877    0.62027    0.23894    1.000
    N5292    N        0.92652    0.62960    0.17777    1.000
    Si5293   Si       0.96541    0.61764    0.15616    1.000
    Si5294   Si       0.80883    0.62687    0.27181    1.000
    N5295    N        0.76914    0.60998    0.27957    1.000
    N5296    N        0.83371    0.60722    0.35149    1.000
    Si5297   Si       0.81428    0.64601    0.34858    1.000
    Si5298   Si       0.75522    0.60244    0.36636    1.000
    Si5299   Si       0.74946    0.63755    0.24779    1.000
    N5300    N        0.77670    0.64306    0.37187    1.000
    N5301    N        0.81304    0.65621    0.30613    1.000
    N5302    N        0.91042    0.62892    0.29903    1.000
    N5303    N        0.96700    0.62254    0.34186    1.000
    Si5304   Si       0.92380    0.62963    0.33885    1.000
    Si5305   Si       0.93859    0.64873    0.27081    1.000
    Si5306   Si       0.88384    0.60316    0.27446    1.000
    N5307    N        0.90399    0.59396    0.35873    1.000
    N5308    N        0.75564    0.63749    0.45061    1.000
    N5309    N        0.85341    0.60894    0.47419    1.000
    N5310    N        0.82773    0.64978    0.43543    1.000
    Si5311   Si       0.83541    0.65032    0.48191    1.000
    Si5312   Si       0.83583    0.60597    0.43424    1.000
    Si5313   Si       0.75999    0.64419    0.49341    1.000
    Si5314   Si       0.98034    0.60818    0.39930    1.000
    Si5315   Si       0.90946    0.60506    0.41890    1.000
    N5316    N        0.94186    0.63226    0.40549    1.000
    N5317    N        0.86909    0.61634    0.40603    1.000
    N5318    N        0.92005    0.60592    0.46240    1.000
    Si5319   Si       0.96037    0.61828    0.46910    1.000
    Si5320   Si       0.81755    0.62530    0.54612    1.000
    N5321    N        0.78271    0.62003    0.52087    1.000
    N5322    N        0.80400    0.63960    0.58638    1.000
    Si5323   Si       0.77486    0.62577    0.61557    1.000
    N5324    N        0.84528    0.65104    0.52538    1.000
    N5325    N        0.74211    0.65190    0.60425    1.000
    Si5326   Si       0.92629    0.61133    0.60812    1.000
    N5327    N        0.88245    0.61417    0.59384    1.000
    Si5328   Si       0.93528    0.61969    0.53476    1.000
    N5329    N        0.95333    0.62038    0.57392    1.000
    N5330    N        0.96967    0.60883    0.50983    1.000
    Si5331   Si       0.87832    0.65558    0.61198    1.000
    Si5332   Si       0.99290    0.62088    0.59306    1.000
    N5333    N        0.91390    0.65498    0.51815    1.000
    N5334    N        0.78565    0.60922    0.65266    1.000
    N5335    N        0.81512    0.64495    0.70162    1.000
    Si5336   Si       0.79175    0.60860    0.69444    1.000
    N5337    N        0.75162    0.60625    0.71488    1.000
    Si5338   Si       0.83102    0.64659    0.74277    1.000
    N5339    N        0.91850    0.60983    0.65254    1.000
    N5340    N        0.98441    0.63554    0.63323    1.000
    N5341    N        0.90739    0.64131    0.71761    1.000
    Si5342   Si       0.89063    0.60453    0.73300    1.000
    Si5343   Si       0.90931    0.64621    0.67373    1.000
    N5344    N        0.87026    0.65563    0.65587    1.000
    Si5345   Si       0.77970    0.62902    0.79948    1.000
    N5346    N        0.80004    0.63227    0.83799    1.000
    Si5347   Si       0.84281    0.62493    0.83796    1.000
    N5348    N        0.85357    0.61089    0.75452    1.000
    N5349    N        0.79749    0.65432    0.76852    1.000
    N5350    N        0.92056    0.62604    0.82907    1.000
    Si5351   Si       0.93743    0.62339    0.78858    1.000
    N5352    N        0.97976    0.61408    0.79193    1.000
    N5353    N        0.85457    0.60406    0.87366    1.000
    Si5354   Si       0.78404    0.63143    0.87782    1.000
    Si5355   Si       0.85419    0.63007    0.90777    1.000
    N5356    N        0.80819    0.62179    0.98736    1.000
    N5357    N        0.74505    0.65065    0.88324    1.000
    N5358    N        0.81431    0.64859    0.90425    1.000
    N5359    N        0.85858    0.60260    0.94226    1.000
    Si5360   Si       0.76545    0.62008    0.99289    1.000
    N5361    N        0.74441    0.61687    0.95591    1.000
    N5362    N        0.91899    0.60322    0.90023    1.000
    Si5363   Si       0.92691    0.64312    0.91742    1.000
    N5364    N        0.93179    0.63802    0.96138    1.000
    Si5365   Si       0.93959    0.59945    0.97846    1.000
    N5366    N        0.77459    0.68002    0.07214    1.000
    Si5367   Si       0.77428    0.68659    0.02912    1.000
    Si5368   Si       0.75598    0.69729    0.10565    1.000
    N5369    N        0.81077    0.68809    0.00545    1.000
    N5370    N        0.87125    0.69099    0.07485    1.000
    Si5371   Si       0.96721    0.68681    0.04082    1.000
    N5372    N        0.92883    0.68267    0.02084    1.000
    Si5373   Si       0.87949    0.70749    0.11419    1.000
    N5374    N        0.83201    0.66211    0.19184    1.000
    Si5375   Si       0.80744    0.68700    0.21662    1.000
    N5376    N        0.78038    0.71223    0.19496    1.000
    N5377    N        0.75458    0.65935    0.13088    1.000
    Si5378   Si       0.73794    0.70732    0.18941    1.000
    N5379    N        0.88071    0.67132    0.13755    1.000
    N5380    N        0.92278    0.70127    0.18366    1.000
    N5381    N        0.95482    0.65468    0.12997    1.000
    Si5382   Si       0.92148    0.66657    0.15635    1.000
    Si5383   Si       0.80733    0.69016    0.28001    1.000
    N5384    N        0.75651    0.70472    0.34922    1.000
    N5385    N        0.84438    0.67292    0.36761    1.000
    N5386    N        0.78406    0.66636    0.25002    1.000
    N5387    N        0.83343    0.70708    0.24629    1.000
    N5388    N        0.86647    0.71618    0.31047    1.000
    Si5389   Si       0.87893    0.69605    0.34826    1.000
    Si5390   Si       0.97146    0.70427    0.30585    1.000
    N5391    N        0.91118    0.66691    0.35747    1.000
    N5392    N        0.91618    0.68209    0.25657    1.000
    N5393    N        0.97556    0.66456    0.28838    1.000
    N5394    N        0.98425    0.69333    0.34630    1.000
    Si5395   Si       0.75326    0.67870    0.38158    1.000
    N5396    N        0.77333    0.69616    0.41607    1.000
    N5397    N        0.79395    0.67281    0.48569    1.000
    N5398    N        0.85531    0.69417    0.48245    1.000
    Si5399   Si       0.78747    0.66534    0.44171    1.000
    Si5400   Si       0.85779    0.66152    0.40628    1.000
    Si5401   Si       0.81434    0.71218    0.48902    1.000
    Si5402   Si       0.92858    0.67374    0.39972    1.000
    Si5403   Si       0.98686    0.69334    0.44489    1.000
    N5404    N        0.96423    0.66319    0.46915    1.000
    Si5405   Si       0.88732    0.71047    0.45472    1.000
    N5406    N        0.96222    0.70204    0.40802    1.000
    N5407    N        0.89308    0.68250    0.42228    1.000
    N5408    N        0.91973    0.71586    0.48916    1.000
    N5409    N        0.85431    0.68844    0.59774    1.000
    Si5410   Si       0.81120    0.68121    0.59729    1.000
    N5411    N        0.78037    0.70704    0.58035    1.000
    Si5412   Si       0.74146    0.69273    0.59220    1.000
    Si5413   Si       0.87707    0.67881    0.52053    1.000
    N5414    N        0.96012    0.69589    0.54379    1.000
    N5415    N        0.97705    0.70168    0.61151    1.000
    Si5416   Si       0.94485    0.68279    0.50374    1.000
    N5417    N        0.92071    0.65906    0.61416    1.000
    N5418    N        0.88300    0.71416    0.54181    1.000
    Si5419   Si       0.83065    0.67022    0.66925    1.000
    Si5420   Si       0.76221    0.69925    0.65924    1.000
    N5421    N        0.79801    0.68103    0.64001    1.000
    N5422    N        0.83839    0.71091    0.68371    1.000
    N5423    N        0.85951    0.67947    0.74522    1.000
    Si5424   Si       0.90351    0.67621    0.74384    1.000
    N5425    N        0.98968    0.71251    0.70101    1.000
    Si5426   Si       0.94746    0.71167    0.69284    1.000
    Si5427   Si       0.95872    0.66880    0.63313    1.000
    N5428    N        0.94128    0.67460    0.67253    1.000
    Si5429   Si       0.78631    0.69506    0.77316    1.000
    Si5430   Si       0.83940    0.69951    0.83449    1.000
    N5431    N        0.80461    0.70503    0.81103    1.000
    N5432    N        0.74428    0.70071    0.76872    1.000
    N5433    N        0.86353    0.66272    0.83257    1.000
    N5434    N        0.74204    0.71048    0.85120    1.000
    Si5435   Si       0.90515    0.66676    0.82322    1.000
    N5436    N        0.92465    0.69845    0.84586    1.000
    Si5437   Si       0.96338    0.69490    0.86495    1.000
    N5438    N        0.92254    0.66464    0.78162    1.000
    Si5439   Si       0.83576    0.71345    0.98153    1.000
    Si5440   Si       0.74107    0.69363    0.89393    1.000
    Si5441   Si       0.81139    0.69190    0.90839    1.000
    N5442    N        0.84085    0.70244    0.93979    1.000
    N5443    N        0.77276    0.70669    0.92054    1.000
    Si5444   Si       0.90950    0.66679    0.98541    1.000
    N5445    N        0.90977    0.70148    0.95724    1.000
    N5446    N        0.88591    0.65922    0.91070    1.000
    N5447    N        0.95977    0.66171    0.89467    1.000
    Si5448   Si       0.88262    0.70001    0.92300    1.000
    N5449    N        0.82956    0.74149    0.05452    1.000
    Si5450   Si       0.79856    0.74987    0.02389    1.000
    N5451    N        0.76042    0.72832    0.02767    1.000
    N5452    N        0.77972    0.73601    0.10780    1.000
    Si5453   Si       0.81841    0.75168    0.09611    1.000
    Si5454   Si       0.87135    0.72540    0.04781    1.000
    N5455    N        0.87047    0.72530    0.00512    1.000
    Si5456   Si       0.93746    0.74364    0.08484    1.000
    N5457    N        0.90017    0.75353    0.06390    1.000
    N5458    N        0.96997    0.72051    0.06772    1.000
    N5459    N        0.91957    0.72309    0.11823    1.000
    N5460    N        0.85104    0.73893    0.12469    1.000
    Si5461   Si       0.79263    0.75438    0.19780    1.000
    N5462    N        0.83652    0.75255    0.19759    1.000
    Si5463   Si       0.75466    0.75646    0.13453    1.000
    Si5464   Si       0.85695    0.76178    0.16226    1.000
    Si5465   Si       0.85253    0.74624    0.23789    1.000
    N5466    N        0.76925    0.77007    0.23178    1.000
    Si5467   Si       0.98914    0.77430    0.13011    1.000
    N5468    N        0.89412    0.73757    0.24524    1.000
    N5469    N        0.89948    0.76502    0.17167    1.000
    Si5470   Si       0.92815    0.73549    0.15858    1.000
    N5471    N        0.95881    0.74053    0.22541    1.000
    N5472    N        0.97227    0.74437    0.15657    1.000
    Si5473   Si       0.92351    0.71284    0.22634    1.000
    Si5474   Si       0.98984    0.72984    0.19401    1.000
    N5475    N        0.79852    0.72700    0.29999    1.000
    Si5476   Si       0.76333    0.73683    0.32113    1.000
    Si5477   Si       0.83507    0.74929    0.30553    1.000
    N5478    N        0.75936    0.77444    0.33812    1.000
    N5479    N        0.82723    0.77146    0.34264    1.000
    Si5480   Si       0.92365    0.74845    0.34481    1.000
    N5481    N        0.93299    0.72214    0.31185    1.000
    N5482    N        0.96037    0.76045    0.36456    1.000
    N5483    N        0.89490    0.72955    0.37132    1.000
    Si5484   Si       0.89996    0.71410    0.28302    1.000
    N5485    N        0.78889    0.74101    0.46720    1.000
    N5486    N        0.77630    0.76653    0.40292    1.000
    N5487    N        0.83616    0.72749    0.41651    1.000
    Si5488   Si       0.79512    0.73428    0.42434    1.000
    Si5489   Si       0.75483    0.76312    0.48301    1.000
    N5490    N        0.89608    0.75148    0.43649    1.000
    Si5491   Si       0.98571    0.76953    0.46574    1.000
    Si5492   Si       0.98398    0.72345    0.37746    1.000
    N5493    N        0.98478    0.72762    0.47084    1.000
    Si5494   Si       0.86950    0.74977    0.40063    1.000
    N5495    N        0.81709    0.72981    0.52816    1.000
    Si5496   Si       0.78240    0.73980    0.55172    1.000
    N5497    N        0.74875    0.74229    0.52140    1.000
    N5498    N        0.85015    0.75908    0.57572    1.000
    Si5499   Si       0.85563    0.74744    0.53458    1.000
    N5500    N        0.93558    0.76051    0.53826    1.000
    N5501    N        0.91381    0.72718    0.59676    1.000
    N5502    N        0.97523    0.76219    0.59922    1.000
    Si5503   Si       0.87055    0.72834    0.59997    1.000
    Si5504   Si       0.92588    0.72133    0.55571    1.000
    Si5505   Si       0.91808    0.75823    0.49885    1.000
    N5506    N        0.87665    0.77273    0.50580    1.000
    Si5507   Si       0.95017    0.73502    0.62125    1.000
    Si5508   Si       0.81911    0.74751    0.66373    1.000
    N5509    N        0.77642    0.73419    0.67830    1.000
    Si5510   Si       0.78452    0.75295    0.71737    1.000
    N5511    N        0.74715    0.76604    0.73506    1.000
    Si5512   Si       0.84373    0.71656    0.72699    1.000
    N5513    N        0.80240    0.72155    0.74174    1.000
    N5514    N        0.80311    0.77293    0.63023    1.000
    N5515    N        0.86470    0.75404    0.63687    1.000
    Si5516   Si       0.90040    0.76652    0.66010    1.000
    N5517    N        0.93487    0.74028    0.66195    1.000
    Si5518   Si       0.91157    0.75433    0.73791    1.000
    N5519    N        0.91992    0.71122    0.72525    1.000
    Si5520   Si       0.78176    0.72493    0.84286    1.000
    N5521    N        0.77717    0.76448    0.82914    1.000
    N5522    N        0.86290    0.75129    0.74719    1.000
    N5523    N        0.81813    0.71378    0.87053    1.000
    N5524    N        0.86664    0.73203    0.82481    1.000
    Si5525   Si       0.86711    0.75815    0.79110    1.000
    N5526    N        0.91266    0.75821    0.78215    1.000
    Si5527   Si       0.90141    0.73560    0.85429    1.000
    Si5528   Si       0.95575    0.77051    0.78105    1.000
    N5529    N        0.92782    0.76988    0.85863    1.000
    N5530    N        0.98883    0.74499    0.78838    1.000
    Si5531   Si       0.78210    0.74520    0.94283    1.000
    Si5532   Si       0.84059    0.75051    0.88796    1.000
    N5533    N        0.80927    0.74873    0.98088    1.000
    N5534    N        0.81695    0.76416    0.92214    1.000
    N5535    N        0.74260    0.76245    0.93919    1.000
    Si5536   Si       0.83804    0.77383    0.95970    1.000
    N5537    N        0.97452    0.72900    0.89161    1.000
    Si5538   Si       0.97871    0.73866    0.99617    1.000
    Si5539   Si       0.95850    0.76998    0.88939    1.000
    Si5540   Si       0.90275    0.73836    0.98031    1.000
    N5541    N        0.87977    0.72914    0.89235    1.000
    N5542    N        0.88060    0.76746    0.95564    1.000
    N5543    N        0.93672    0.75315    0.99945    1.000
    N5544    N        0.81849    0.79553    0.09265    1.000
    Si5545   Si       0.81798    0.81502    0.05339    1.000
    N5546    N        0.79187    0.79295    0.02877    1.000
    Si5547   Si       0.75726    0.80655    0.00482    1.000
    Si5548   Si       0.84562    0.82060    0.11580    1.000
    N5549    N        0.85944    0.80913    0.03775    1.000
    Si5550   Si       0.89422    0.79711    0.06239    1.000
    Si5551   Si       0.95847    0.81791    0.07747    1.000
    N5552    N        0.92798    0.81543    0.04582    1.000
    N5553    N        0.88570    0.82129    0.09951    1.000
    N5554    N        0.95535    0.78153    0.09904    1.000
    Si5555   Si       0.93942    0.83184    0.00682    1.000
    Si5556   Si       0.86656    0.82945    0.00037    1.000
    N5557    N        0.77759    0.77599    0.16409    1.000
    Si5558   Si       0.76351    0.81137    0.22120    1.000
    N5559    N        0.84862    0.80545    0.15638    1.000
    Si5560   Si       0.75485    0.81469    0.15637    1.000
    N5561    N        0.79826    0.82796    0.20135    1.000
    Si5562   Si       0.83949    0.82976    0.19287    1.000
    N5563    N        0.86983    0.81126    0.21879    1.000
    N5564    N        0.92418    0.82810    0.16009    1.000
    Si5565   Si       0.96129    0.77980    0.24370    1.000
    N5566    N        0.94143    0.80322    0.21478    1.000
    Si5567   Si       0.96243    0.82560    0.18051    1.000
    Si5568   Si       0.90330    0.80289    0.19390    1.000
    Si5569   Si       0.79246    0.78353    0.36532    1.000
    N5570    N        0.75334    0.82601    0.25896    1.000
    Si5571   Si       0.85686    0.81738    0.26142    1.000
    N5572    N        0.84402    0.77408    0.27126    1.000
    Si5573   Si       0.86415    0.79581    0.34709    1.000
    Si5574   Si       0.91944    0.80979    0.30437    1.000
    N5575    N        0.95315    0.79441    0.28341    1.000
    N5576    N        0.89861    0.78147    0.32900    1.000
    N5577    N        0.79605    0.82539    0.37128    1.000
    Si5578   Si       0.85914    0.82587    0.41662    1.000
    N5579    N        0.88326    0.81662    0.45027    1.000
    N5580    N        0.93515    0.81444    0.40567    1.000
    Si5581   Si       0.94111    0.83272    0.48286    1.000
    N5582    N        0.86732    0.79133    0.39063    1.000
    Si5583   Si       0.96988    0.79570    0.38837    1.000
    N5584    N        0.94251    0.78879    0.47271    1.000
    Si5585   Si       0.91528    0.78948    0.43507    1.000
    Si5586   Si       0.87549    0.81364    0.49407    1.000
    Si5587   Si       0.76423    0.81189    0.54010    1.000
    Si5588   Si       0.83960    0.78170    0.60944    1.000
    Si5589   Si       0.76725    0.78628    0.61054    1.000
    N5590    N        0.77874    0.77962    0.56706    1.000
    N5591    N        0.84481    0.82435    0.61485    1.000
    N5592    N        0.76243    0.80412    0.49705    1.000
    N5593    N        0.92817    0.81376    0.57988    1.000
    Si5594   Si       0.95757    0.78503    0.56514    1.000
    Si5595   Si       0.93799    0.82898    0.62064    1.000
    N5596    N        0.98208    0.82848    0.61936    1.000
    N5597    N        0.76639    0.82825    0.62591    1.000
    Si5598   Si       0.85470    0.78497    0.72039    1.000
    N5599    N        0.84583    0.82230    0.73871    1.000
    N5600    N        0.81970    0.77148    0.70017    1.000
    N5601    N        0.91637    0.80439    0.64792    1.000
    Si5602   Si       0.92089    0.81979    0.69072    1.000
    N5603    N        0.96423    0.82290    0.69395    1.000
    N5604    N        0.95293    0.77533    0.73768    1.000
    N5605    N        0.89602    0.78306    0.70354    1.000
    Si5606   Si       0.98528    0.79825    0.72284    1.000
    Si5607   Si       0.80979    0.79314    0.83206    1.000
    N5608    N        0.84172    0.79408    0.80061    1.000
    N5609    N        0.78433    0.82855    0.84106    1.000
    N5610    N        0.83709    0.78952    0.86653    1.000
    Si5611   Si       0.74213    0.83343    0.86041    1.000
    N5612    N        0.74223    0.81513    0.78543    1.000
    Si5613   Si       0.74222    0.78410    0.81483    1.000
    Si5614   Si       0.94310    0.80875    0.84158    1.000
    N5615    N        0.95812    0.80929    0.80113    1.000
    N5616    N        0.97892    0.80896    0.86972    1.000
    N5617    N        0.83716    0.81355    0.97301    1.000
    N5618    N        0.76760    0.81843    0.96476    1.000
    Si5619   Si       0.84180    0.82884    0.88832    1.000
    Si5620   Si       0.73922    0.80677    0.93364    1.000
    N5621    N        0.90529    0.82692    0.97951    1.000
    N5622    N        0.97560    0.81959    0.98821    1.000
    Si5623   Si       0.90200    0.80226    0.93955    1.000
    N5624    N        0.88125    0.82316    0.90863    1.000
    N5625    N        0.94207    0.78960    0.92672    1.000
    Si5626   Si       0.97534    0.79402    0.95297    1.000
    N5627    N        0.81037    0.85765    0.05369    1.000
    Si5628   Si       0.77871    0.87122    0.02465    1.000
    N5629    N        0.74771    0.84172    0.02957    1.000
    Si5630   Si       0.82112    0.88602    0.08478    1.000
    N5631    N        0.95002    0.85302    0.10080    1.000
    N5632    N        0.94071    0.87399    0.01582    1.000
    Si5633   Si       0.97901    0.88467    0.10600    1.000
    N5634    N        0.86702    0.87255    0.00242    1.000
    N5635    N        0.82734    0.85853    0.11930    1.000
    Si5636   Si       0.84879    0.88485    0.23782    1.000
    N5637    N        0.85310    0.87246    0.19468    1.000
    N5638    N        0.76310    0.85407    0.14363    1.000
    Si5639   Si       0.79585    0.88343    0.14161    1.000
    N5640    N        0.89719    0.88460    0.13345    1.000
    Si5641   Si       0.91346    0.84556    0.12245    1.000
    N5642    N        0.78109    0.85395    0.31159    1.000
    Si5643   Si       0.81019    0.85359    0.34209    1.000
    N5644    N        0.83091    0.85180    0.26096    1.000
    Si5645   Si       0.78753    0.85359    0.26786    1.000
    N5646    N        0.84998    0.83619    0.33829    1.000
    N5647    N        0.82772    0.88952    0.35978    1.000
    N5648    N        0.77276    0.88724    0.24537    1.000
    Si5649   Si       0.86705    0.87059    0.35943    1.000
    Si5650   Si       0.90083    0.87542    0.29196    1.000
    Si5651   Si       0.96954    0.86661    0.31877    1.000
    N5652    N        0.93699    0.83930    0.33228    1.000
    N5653    N        0.89146    0.83517    0.28186    1.000
    N5654    N        0.94207    0.89049    0.29102    1.000
    N5655    N        0.82111    0.83944    0.43138    1.000
    Si5656   Si       0.82005    0.86041    0.46945    1.000
    N5657    N        0.77924    0.86769    0.48407    1.000
    Si5658   Si       0.78463    0.84891    0.40860    1.000
    Si5659   Si       0.74818    0.83934    0.47201    1.000
    N5660    N        0.74885    0.83508    0.42777    1.000
    N5661    N        0.92951    0.86311    0.45504    1.000
    Si5662   Si       0.92215    0.85475    0.41262    1.000
    N5663    N        0.95161    0.88650    0.39880    1.000
    N5664    N        0.88425    0.85925    0.39692    1.000
    Si5665   Si       0.98924    0.87360    0.38340    1.000
    N5666    N        0.77992    0.85059    0.55042    1.000
    N5667    N        0.80023    0.88042    0.61443    1.000
    Si5668   Si       0.76991    0.87837    0.58357    1.000
    N5669    N        0.84485    0.84167    0.50099    1.000
    Si5670   Si       0.85823    0.87264    0.52846    1.000
    Si5671   Si       0.78642    0.88482    0.52448    1.000
    Si5672   Si       0.87289    0.85833    0.60815    1.000
    N5673    N        0.87909    0.86257    0.56465    1.000
    Si5674   Si       0.91850    0.84795    0.55461    1.000
    N5675    N        0.95087    0.87804    0.55622    1.000
    Si5676   Si       0.97584    0.88515    0.52165    1.000
    N5677    N        0.97792    0.84635    0.50128    1.000
    N5678    N        0.91530    0.86549    0.62009    1.000
    N5679    N        0.91055    0.83368    0.51334    1.000
    N5680    N        0.81895    0.84260    0.67377    1.000
    N5681    N        0.78174    0.85503    0.73526    1.000
    Si5682   Si       0.80759    0.84015    0.63461    1.000
    N5683    N        0.75181    0.88202    0.67189    1.000
    Si5684   Si       0.74818    0.86776    0.71228    1.000
    Si5685   Si       0.81875    0.84933    0.71520    1.000
    N5686    N        0.89969    0.85481    0.70416    1.000
    Si5687   Si       0.88026    0.87282    0.73849    1.000
    N5688    N        0.95913    0.88771    0.70360    1.000
    Si5689   Si       0.80343    0.86724    0.83332    1.000
    N5690    N        0.84256    0.85957    0.85511    1.000
    N5691    N        0.82512    0.86604    0.79234    1.000
    Si5692   Si       0.79517    0.88378    0.76618    1.000
    N5693    N        0.76572    0.88471    0.80028    1.000
    Si5694   Si       0.85021    0.83211    0.78063    1.000
    N5695    N        0.78156    0.89094    0.86572    1.000
    N5696    N        0.88897    0.85275    0.77818    1.000
    Si5697   Si       0.91620    0.86726    0.80747    1.000
    N5698    N        0.95305    0.87578    0.78874    1.000
    N5699    N        0.91581    0.84339    0.84297    1.000
    Si5700   Si       0.98217    0.84259    0.78393    1.000
    N5701    N        0.79963    0.87190    0.98816    1.000
    N5702    N        0.81405    0.84765    0.91835    1.000
    Si5703   Si       0.77865    0.86948    0.90272    1.000
    Si5704   Si       0.80530    0.83843    0.95828    1.000
    N5705    N        0.74724    0.83692    0.90279    1.000
    Si5706   Si       0.98496    0.84247    0.89844    1.000
    Si5707   Si       0.90795    0.85327    0.88619    1.000
    N5708    N        0.88478    0.89031    0.89294    1.000
    N5709    N        0.94431    0.85951    0.90267    1.000
    N5710    N        0.76675    0.90888    0.03712    1.000
    N5711    N        0.83006    0.93044    0.01501    1.000
    N5712    N        0.84830    0.91818    0.07686    1.000
    Si5713   Si       0.74771    0.90764    0.07711    1.000
    N5714    N        0.78244    0.90075    0.10107    1.000
    Si5715   Si       0.78967    0.94378    0.02090    1.000
    N5716    N        0.73760    0.95014    0.08482    1.000
    Si5717   Si       0.86636    0.93360    0.03905    1.000
    N5718    N        0.92240    0.91238    0.06750    1.000
    Si5719   Si       0.95697    0.90431    0.04279    1.000
    N5720    N        0.89845    0.93268    0.00843    1.000
    Si5721   Si       0.91660    0.91628    0.10958    1.000
    N5722    N        0.96897    0.93596    0.01658    1.000
    Si5723   Si       0.78490    0.91713    0.21628    1.000
    N5724    N        0.82811    0.91710    0.14776    1.000
    N5725    N        0.82510    0.92095    0.23040    1.000
    N5726    N        0.77360    0.90247    0.17928    1.000
    Si5727   Si       0.85422    0.94858    0.21098    1.000
    Si5728   Si       0.86623    0.90156    0.16158    1.000
    N5729    N        0.93815    0.94401    0.24108    1.000
    N5730    N        0.88405    0.93524    0.18147    1.000
    N5731    N        0.98630    0.93498    0.18872    1.000
    N5732    N        0.95747    0.91656    0.12762    1.000
    N5733    N        0.77259    0.93163    0.35697    1.000
    N5734    N        0.76477    0.94097    0.28397    1.000
    Si5735   Si       0.81605    0.93133    0.36722    1.000
    Si5736   Si       0.74158    0.90726    0.26910    1.000
    Si5737   Si       0.90047    0.94198    0.26092    1.000
    Si5738   Si       0.96222    0.91887    0.26675    1.000
    Si5739   Si       0.88571    0.93570    0.33743    1.000
    N5740    N        0.88426    0.90090    0.26026    1.000
    N5741    N        0.88477    0.89476    0.32852    1.000
    N5742    N        0.98830    0.94545    0.29001    1.000
    N5743    N        0.90790    0.93840    0.37542    1.000
    N5744    N        0.77987    0.89302    0.41188    1.000
    Si5745   Si       0.84930    0.92175    0.49159    1.000
    Si5746   Si       0.74937    0.90431    0.38190    1.000
    N5747    N        0.83396    0.90124    0.45706    1.000
    Si5748   Si       0.80171    0.92184    0.43704    1.000
    N5749    N        0.78203    0.94248    0.46894    1.000
    Si5750   Si       0.91966    0.90131    0.47385    1.000
    Si5751   Si       0.93754    0.92780    0.40469    1.000
    N5752    N        0.91265    0.92961    0.44153    1.000
    N5753    N        0.95219    0.91451    0.49762    1.000
    N5754    N        0.76536    0.91271    0.55359    1.000
    N5755    N        0.82596    0.90150    0.52427    1.000
    N5756    N        0.81908    0.94784    0.60777    1.000
    N5757    N        0.91952    0.93249    0.59235    1.000
    Si5758   Si       0.95715    0.91098    0.58280    1.000
    N5759    N        0.97403    0.94495    0.55974    1.000
    N5760    N        0.98287    0.90163    0.61869    1.000
    N5761    N        0.88538    0.89702    0.50121    1.000
    N5762    N        0.84101    0.88660    0.72532    1.000
    N5763    N        0.86256    0.89665    0.62580    1.000
    Si5764   Si       0.82214    0.91356    0.63259    1.000
    Si5765   Si       0.75416    0.93991    0.73896    1.000
    N5766    N        0.80803    0.91975    0.67316    1.000
    Si5767   Si       0.82453    0.92555    0.71502    1.000
    Si5768   Si       0.76464    0.92497    0.66942    1.000
    N5769    N        0.75301    0.93966    0.63204    1.000
    N5770    N        0.79463    0.92394    0.74807    1.000
    Si5771   Si       0.98226    0.92225    0.71842    1.000
    Si5772   Si       0.90396    0.90744    0.62550    1.000
    Si5773   Si       0.98970    0.93357    0.64730    1.000
    N5774    N        0.90078    0.91110    0.73251    1.000
    Si5775   Si       0.91774    0.89651    0.69688    1.000
    N5776    N        0.91550    0.92562    0.66358    1.000
    N5777    N        0.97376    0.95062    0.68536    1.000
    N5778    N        0.84163    0.93243    0.86288    1.000
    Si5779   Si       0.74856    0.90703    0.83568    1.000
    N5780    N        0.77781    0.94138    0.83581    1.000
    Si5781   Si       0.79982    0.93068    0.87131    1.000
    Si5782   Si       0.86727    0.89476    0.85303    1.000
    Si5783   Si       0.97078    0.91555    0.79200    1.000
    N5784    N        0.89508    0.90504    0.82109    1.000
    N5785    N        0.96210    0.93417    0.75431    1.000
    N5786    N        0.95411    0.94085    0.82299    1.000
    Si5787   Si       0.91122    0.94638    0.82032    1.000
    Si5788   Si       0.92125    0.94611    0.74773    1.000
    N5789    N        0.76189    0.90075    0.92871    1.000
    N5790    N        0.83658    0.91313    0.94707    1.000
    Si5791   Si       0.79149    0.92892    0.94339    1.000
    Si5792   Si       0.83619    0.89726    0.98707    1.000
    N5793    N        0.77726    0.94908    0.97991    1.000
    N5794    N        0.95456    0.93507    0.91403    1.000
    N5795    N        0.91284    0.89980    0.95474    1.000
    Si5796   Si       0.87831    0.91266    0.93019    1.000
    Si5797   Si       0.90543    0.89064    0.99489    1.000
    Si5798   Si       0.94833    0.89511    0.93082    1.000
    N5799    N        0.78908    0.97889    0.04552    1.000
    Si5800   Si       0.74718    0.98128    0.05609    1.000
    Si5801   Si       0.82749    0.00042    0.04853    1.000
    N5802    N        0.82717    0.97692    0.11544    1.000
    Si5803   Si       0.85909    0.95726    0.09661    1.000
    N5804    N        0.86394    0.97445    0.05573    1.000
    N5805    N        0.92660    0.99556    0.03200    1.000
    Si5806   Si       0.93189    0.95878    0.00557    1.000
    Si5807   Si       0.88461    0.00709    0.03166    1.000
    N5808    N        0.89467    0.95337    0.11940    1.000
    N5809    N        0.76841    0.96710    0.14742    1.000
    Si5810   Si       0.75694    0.98847    0.18404    1.000
    N5811    N        0.83288    0.97409    0.18285    1.000
    N5812    N        0.76670    0.95842    0.21497    1.000
    Si5813   Si       0.81118    0.95631    0.14859    1.000
    N5814    N        0.96608    0.00581    0.21279    1.000
    N5815    N        0.87242    0.97003    0.24249    1.000
    N5816    N        0.94262    0.97324    0.16582    1.000
    Si5817   Si       0.89997    0.97027    0.15833    1.000
    Si5818   Si       0.95629    0.96228    0.20687    1.000
    Si5819   Si       0.97635    0.95076    0.14816    1.000
    N5820    N        0.77172    0.99408    0.32393    1.000
    Si5821   Si       0.84533    0.99744    0.33737    1.000
    Si5822   Si       0.75896    0.97348    0.25550    1.000
    Si5823   Si       0.75568    0.95309    0.32403    1.000
    N5824    N        0.84458    0.95279    0.34323    1.000
    Si5825   Si       0.91569    0.99747    0.31339    1.000
    N5826    N        0.90177    0.95719    0.30295    1.000
    N5827    N        0.95408    0.99177    0.33189    1.000
    N5828    N        0.88808    0.00980    0.34498    1.000
    N5829    N        0.81788    0.95010    0.40639    1.000
    Si5830   Si       0.74497    0.95767    0.48193    1.000
    Si5831   Si       0.83109    0.99172    0.41114    1.000
    N5832    N        0.86512    0.96105    0.48478    1.000
    Si5833   Si       0.95546    0.99817    0.42788    1.000
    Si5834   Si       0.89235    0.96778    0.44978    1.000
    N5835    N        0.87391    0.99183    0.41739    1.000
    N5836    N        0.92522    0.99365    0.46024    1.000
    N5837    N        0.96744    0.95951    0.41085    1.000
    Si5838   Si       0.83990    0.98380    0.59316    1.000
    Si5839   Si       0.77882    0.99287    0.54724    1.000
    N5840    N        0.81396    0.98585    0.52203    1.000
    N5841    N        0.74808    0.97095    0.58091    1.000
    Si5842   Si       0.85727    0.98540    0.52058    1.000
    Si5843   Si       0.78076    0.96875    0.61175    1.000
    N5844    N        0.74409    0.98105    0.52153    1.000
    N5845    N        0.80018    0.00382    0.58595    1.000
    N5846    N        0.85304    0.00932    0.62456    1.000
    N5847    N        0.86742    0.97504    0.56165    1.000
    Si5848   Si       0.96219    0.95123    0.51770    1.000
    Si5849   Si       0.91082    0.96807    0.56610    1.000
    N5850    N        0.92735    0.97557    0.52542    1.000
    N5851    N        0.91978    0.00143    0.59355    1.000
    Si5852   Si       0.95700    0.00246    0.61761    1.000
    N5853    N        0.98700    0.96958    0.62178    1.000
    Si5854   Si       0.91907    0.00980    0.49960    1.000
    N5855    N        0.83730    0.96578    0.71402    1.000
    N5856    N        0.75342    0.95577    0.69867    1.000
    N5857    N        0.78891    0.99221    0.65136    1.000
    Si5858   Si       0.76283    0.99579    0.68576    1.000
    Si5859   Si       0.82739    0.00740    0.71862    1.000
    Si5860   Si       0.93281    0.96335    0.67887    1.000
    N5861    N        0.92308    0.97858    0.71914    1.000
    N5862    N        0.92753    0.99737    0.65410    1.000
    Si5863   Si       0.77036    0.97266    0.80682    1.000
    N5864    N        0.80651    0.99055    0.79254    1.000
    N5865    N        0.74939    0.99998    0.83399    1.000
    N5866    N        0.74587    0.96712    0.77124    1.000
    N5867    N        0.89847    0.96916    0.85315    1.000
    Si5868   Si       0.97797    0.97703    0.82617    1.000
    N5869    N        0.89932    0.96505    0.78178    1.000
    Si5870   Si       0.87712    0.00162    0.77446    1.000
    Si5871   Si       0.80653    0.99577    0.90693    1.000
    N5872    N        0.84203    0.00016    0.88364    1.000
    N5873    N        0.79699    0.95241    0.90803    1.000
    N5874    N        0.94677    0.99629    0.89866    1.000
    N5875    N        0.93538    0.97863    0.96806    1.000
    Si5876   Si       0.97274    0.00523    0.97276    1.000
    Si5877   Si       0.86625    0.96232    0.88000    1.000
    Si5878   Si       0.92703    0.96785    0.92763    1.000
    N5879    N        0.88814    0.95344    0.91796    1.000
