# CIF file generated by openbabel 3.1.1, see https://openbabel.org
data_I
_chemical_name_common '3.01-65.aims'
_cell_length_a 39.8276
_cell_length_b 39.8276
_cell_length_c 39.8276
_cell_angle_alpha 90
_cell_angle_beta 90
_cell_angle_gamma 90
loop_
    _atom_site_label
    _atom_site_type_symbol
    _atom_site_fract_x
    _atom_site_fract_y
    _atom_site_fract_z
    _atom_site_occupancy
    Si0      Si       0.05714    0.03103    0.02796    1.000
    N1       N        0.01523    0.04626    0.02442    1.000
    Si2      Si       0.10539    0.01407    0.10764    1.000
    N3       N        0.06085    0.01829    0.10661    1.000
    N4       N        0.07768    0.06401    0.04970    1.000
    Si5      Si       0.99329    0.05151    0.06202    1.000
    Si6      Si       0.11470    0.06725    0.02632    1.000
    N7       N        0.98928    0.01263    0.08264    1.000
    N8       N        0.09064    0.02965    0.99725    1.000
    N9       N        0.23081    0.06024    0.03603    1.000
    Si10     Si       0.22439    0.01693    0.04407    1.000
    N11      N        0.13228    0.04883    0.10881    1.000
    N12      N        0.14215    0.03752    0.04249    1.000
    Si13     Si       0.15470    0.06599    0.07765    1.000
    Si14     Si       0.12869    0.00685    0.99701    1.000
    Si15     Si       0.05783    0.01533    0.15112    1.000
    Si16     Si       0.07952    0.05903    0.20720    1.000
    N17      N        0.05829    0.02323    0.19357    1.000
    N18      N        0.99508    0.04682    0.21322    1.000
    N19      N        0.09749    0.05039    0.24680    1.000
    N20      N        0.21004    0.03743    0.21269    1.000
    Si21     Si       0.19187    0.03591    0.17382    1.000
    N22      N        0.22286    0.04342    0.14356    1.000
    N23      N        0.16298    0.06823    0.17339    1.000
    N24      N        0.04083    0.04564    0.33693    1.000
    Si25     Si       0.07120    0.06045    0.36554    1.000
    Si26     Si       0.08392    0.01402    0.26736    1.000
    N27      N        0.11225    0.04328    0.36669    1.000
    Si28     Si       0.00440    0.06959    0.32228    1.000
    N29      N        0.14064    0.06584    0.30392    1.000
    Si30     Si       0.12885    0.03040    0.32864    1.000
    N31      N        0.21119    0.05027    0.34589    1.000
    N32      N        0.02396    0.02943    0.45150    1.000
    Si33     Si       0.04554    0.03356    0.49026    1.000
    Si34     Si       0.00972    0.06172    0.42504    1.000
    N35      N        0.08715    0.02035    0.48308    1.000
    N36      N        0.13175    0.03065    0.43900    1.000
    N37      N        0.19776    0.02572    0.45442    1.000
    Si38     Si       0.14146    0.03816    0.39715    1.000
    Si39     Si       0.11592    0.05576    0.47340    1.000
    Si40     Si       0.17644    0.06353    0.45234    1.000
    N41      N        0.17226    0.06906    0.40691    1.000
    N42      N        0.09885    0.02921    0.55120    1.000
    Si43     Si       0.09497    0.04295    0.59303    1.000
    N44      N        0.99905    0.04094    0.56431    1.000
    N45      N        0.06054    0.06099    0.60849    1.000
    N46      N        0.16463    0.02444    0.56876    1.000
    Si47     Si       0.13894    0.02467    0.53390    1.000
    N48      N        0.20241    0.04460    0.61475    1.000
    Si49     Si       0.17023    0.06280    0.58922    1.000
    N50      N        0.14844    0.05655    0.50494    1.000
    Si51     Si       0.05542    0.04865    0.65303    1.000
    N52      N        0.09667    0.05045    0.66706    1.000
    N53      N        0.11929    0.05071    0.73464    1.000
    N54      N        0.15690    0.01368    0.65705    1.000
    Si55     Si       0.23172    0.02925    0.73681    1.000
    Si56     Si       0.11474    0.01249    0.65476    1.000
    N57      N        0.21744    0.02046    0.67272    1.000
    N58      N        0.18755    0.03065    0.72919    1.000
    Si59     Si       0.17858    0.04027    0.68810    1.000
    Si60     Si       0.19613    0.00803    0.63739    1.000
    N61      N        0.02146    0.03527    0.83563    1.000
    N62      N        0.07092    0.04545    0.78990    1.000
    N63      N        0.08917    0.02832    0.86151    1.000
    Si64     Si       0.00657    0.05075    0.79713    1.000
    Si65     Si       0.06240    0.02287    0.82685    1.000
    N66      N        0.00670    0.01753    0.76651    1.000
    Si67     Si       0.09339    0.02406    0.75972    1.000
    Si68     Si       0.99083    0.01653    0.86121    1.000
    Si69     Si       0.11717    0.06296    0.86297    1.000
    N70      N        0.21709    0.02449    0.84689    1.000
    Si71     Si       0.21024    0.03024    0.80354    1.000
    N72      N        0.17274    0.04916    0.79162    1.000
    Si73     Si       0.15417    0.03547    0.75634    1.000
    N74      N        0.15879    0.05521    0.86862    1.000
    N75      N        0.01435    0.02430    0.89930    1.000
    Si76     Si       0.07298    0.03576    0.95645    1.000
    N77      N        0.03244    0.05229    0.95865    1.000
    Si78     Si       0.01741    0.06164    0.91980    1.000
    Si79     Si       0.99595    0.05737    0.98714    1.000
    N80      N        0.10024    0.06289    0.93664    1.000
    N81      N        0.19020    0.00678    0.91388    1.000
    Si82     Si       0.17899    0.01822    0.87397    1.000
    Si83     Si       0.21509    0.00913    0.95757    1.000
    N84      N        0.15307    0.02567    0.96479    1.000
    N85      N        0.22878    0.05135    0.96182    1.000
    Si86     Si       0.05461    0.09467    0.06994    1.000
    N87      N        0.07557    0.11296    0.10366    1.000
    N88      N        0.01842    0.07872    0.08620    1.000
    Si89     Si       0.11549    0.12380    0.08930    1.000
    N90      N        0.04293    0.12781    0.04382    1.000
    N91      N        0.18997    0.12416    0.03025    1.000
    Si92     Si       0.21572    0.09542    0.05531    1.000
    N93      N        0.13236    0.09922    0.05701    1.000
    N94      N        0.19474    0.07926    0.08916    1.000
    Si95     Si       0.14655    0.11900    0.02060    1.000
    Si96     Si       0.00416    0.10393    0.12020    1.000
    N97      N        0.09316    0.07493    0.16739    1.000
    N98      N        0.02812    0.09383    0.15664    1.000
    N99      N        0.04811    0.08594    0.21900    1.000
    Si100    Si       0.01338    0.08256    0.19513    1.000
    Si101    Si       0.06994    0.10993    0.15015    1.000
    Si102    Si       0.22387    0.07175    0.23672    1.000
    Si103    Si       0.18009    0.10496    0.18897    1.000
    Si104    Si       0.21709    0.08406    0.12678    1.000
    Si105    Si       0.13046    0.07422    0.14469    1.000
    N106     N        0.21041    0.10844    0.21987    1.000
    N107     N        0.13324    0.11566    0.12913    1.000
    N108     N        0.20180    0.11907    0.15109    1.000
    N109     N        0.00409    0.10631    0.34851    1.000
    N110     N        0.08342    0.11356    0.27253    1.000
    N111     N        0.07502    0.10432    0.35945    1.000
    Si112    Si       0.04347    0.10453    0.25812    1.000
    N113     N        0.01291    0.07859    0.27834    1.000
    Si114    Si       0.11493    0.08378    0.27155    1.000
    Si115    Si       0.17412    0.09458    0.29140    1.000
    N116     N        0.14987    0.10492    0.25714    1.000
    N117     N        0.21123    0.07641    0.27997    1.000
    Si118    Si       0.23618    0.07356    0.31590    1.000
    Si119    Si       0.03585    0.10802    0.37926    1.000
    N120     N        0.09060    0.08821    0.48411    1.000
    N121     N        0.99416    0.09463    0.44785    1.000
    N122     N        0.04201    0.07139    0.40005    1.000
    Si123    Si       0.12441    0.12083    0.48508    1.000
    N124     N        0.14333    0.09490    0.45389    1.000
    Si125    Si       0.20728    0.07422    0.38078    1.000
    Si126    Si       0.15726    0.11157    0.41410    1.000
    N127     N        0.20114    0.11881    0.37631    1.000
    N128     N        0.20516    0.08305    0.48126    1.000
    Si129    Si       0.05885    0.10439    0.60072    1.000
    N130     N        0.05856    0.11406    0.55707    1.000
    N131     N        0.03498    0.06968    0.51051    1.000
    Si132    Si       0.06084    0.10721    0.50816    1.000
    Si133    Si       0.99898    0.07046    0.53365    1.000
    N134     N        0.02185    0.12756    0.60742    1.000
    N135     N        0.12653    0.07277    0.59744    1.000
    Si136    Si       0.17719    0.08757    0.51429    1.000
    N137     N        0.17712    0.10242    0.61199    1.000
    N138     N        0.19333    0.07676    0.55288    1.000
    Si139    Si       0.13346    0.11832    0.60821    1.000
    Si140    Si       0.23640    0.06781    0.55684    1.000
    N141     N        0.09410    0.11189    0.69792    1.000
    N142     N        0.02736    0.08030    0.66284    1.000
    Si143    Si       0.01888    0.11522    0.68711    1.000
    N144     N        0.02771    0.11653    0.72850    1.000
    Si145    Si       0.06960    0.12639    0.73164    1.000
    N146     N        0.15881    0.07891    0.68284    1.000
    Si147    Si       0.23240    0.07396    0.62678    1.000
    Si148    Si       0.11724    0.07404    0.69738    1.000
    Si149    Si       0.18271    0.11045    0.65660    1.000
    N150     N        0.22361    0.09898    0.66042    1.000
    Si151    Si       0.08252    0.08804    0.79752    1.000
    N152     N        0.00721    0.09443    0.79128    1.000
    N153     N        0.09237    0.11235    0.76408    1.000
    N154     N        0.06370    0.11324    0.82878    1.000
    Si155    Si       0.99874    0.12436    0.75969    1.000
    N156     N        0.11795    0.07845    0.82081    1.000
    N157     N        0.19393    0.10018    0.83024    1.000
    Si158    Si       0.15800    0.08628    0.80947    1.000
    N159     N        0.15780    0.12058    0.78322    1.000
    Si160    Si       0.18665    0.08896    0.87138    1.000
    N161     N        0.10729    0.10151    0.88260    1.000
    N162     N        0.04362    0.09247    0.90691    1.000
    Si163    Si       0.08624    0.10045    0.92032    1.000
    N164     N        0.99520    0.10453    0.98435    1.000
    Si165    Si       0.14113    0.06581    0.95590    1.000
    N166     N        0.17185    0.08968    0.93674    1.000
    Si167    Si       0.21594    0.08239    0.93496    1.000
    N168     N        0.22084    0.07348    0.89288    1.000
    N169     N        0.13613    0.08563    0.99409    1.000
    N170     N        0.22448    0.12405    0.94144    1.000
    Si171    Si       0.02128    0.15808    0.06718    1.000
    N172     N        0.01152    0.14588    0.10796    1.000
    Si173    Si       0.01379    0.13468    0.01019    1.000
    N174     N        0.12797    0.16251    0.07336    1.000
    Si175    Si       0.21263    0.16322    0.03381    1.000
    N176     N        0.13410    0.15447    0.00325    1.000
    Si177    Si       0.12049    0.18247    0.03402    1.000
    N178     N        0.19469    0.18493    0.06902    1.000
    Si179    Si       0.00282    0.15086    0.20998    1.000
    Si180    Si       0.99801    0.17329    0.13905    1.000
    N181     N        0.02290    0.16950    0.17413    1.000
    N182     N        0.08791    0.14729    0.16509    1.000
    Si183    Si       0.06557    0.18064    0.18146    1.000
    N184     N        0.02459    0.14330    0.24700    1.000
    N185     N        0.23473    0.17375    0.12769    1.000
    N186     N        0.21823    0.17228    0.19253    1.000
    Si187    Si       0.22260    0.14796    0.23077    1.000
    N188     N        0.16270    0.17670    0.13673    1.000
    N189     N        0.15200    0.13822    0.19366    1.000
    Si190    Si       0.20043    0.16174    0.15406    1.000
    Si191    Si       0.15201    0.14248    0.23594    1.000
    Si192    Si       0.13006    0.15110    0.15701    1.000
    Si193    Si       0.09603    0.15540    0.28119    1.000
    Si194    Si       0.10008    0.13994    0.35863    1.000
    N195     N        0.07467    0.17610    0.36616    1.000
    N196     N        0.06550    0.18164    0.29120    1.000
    Si197    Si       0.03807    0.18462    0.25954    1.000
    N198     N        0.11407    0.15210    0.32089    1.000
    Si199    Si       0.16867    0.14125    0.35372    1.000
    Si200    Si       0.18458    0.17245    0.29233    1.000
    N201     N        0.18719    0.17863    0.36613    1.000
    N202     N        0.18007    0.13308    0.31210    1.000
    N203     N        0.18929    0.16454    0.25083    1.000
    N204     N        0.12350    0.17195    0.25151    1.000
    N205     N        0.22071    0.18851    0.31202    1.000
    Si206    Si       0.04659    0.18104    0.39965    1.000
    Si207    Si       0.01133    0.13496    0.44509    1.000
    N208     N        0.04179    0.13818    0.47664    1.000
    N209     N        0.03031    0.14007    0.40570    1.000
    Si210    Si       0.07690    0.16670    0.47605    1.000
    N211     N        0.13558    0.12742    0.37971    1.000
    N212     N        0.11671    0.15793    0.45737    1.000
    Si213    Si       0.20972    0.15971    0.40060    1.000
    Si214    Si       0.15024    0.18214    0.44141    1.000
    N215     N        0.17762    0.14896    0.42793    1.000
    N216     N        0.01454    0.17175    0.54984    1.000
    Si217    Si       0.09477    0.14162    0.55878    1.000
    N218     N        0.09107    0.13593    0.60831    1.000
    Si219    Si       0.01836    0.13272    0.56405    1.000
    N220     N        0.08163    0.18302    0.56478    1.000
    Si221    Si       0.08592    0.17960    0.61736    1.000
    N222     N        0.09414    0.14201    0.51400    1.000
    Si223    Si       0.16487    0.15687    0.53919    1.000
    N224     N        0.20688    0.15272    0.55414    1.000
    N225     N        0.13929    0.13748    0.56778    1.000
    N226     N        0.20361    0.16063    0.62005    1.000
    N227     N        0.16054    0.12612    0.50830    1.000
    Si228    Si       0.20661    0.12711    0.59026    1.000
    Si229    Si       0.01683    0.16384    0.63386    1.000
    N230     N        0.06904    0.16972    0.72619    1.000
    N231     N        0.03126    0.15362    0.67341    1.000
    N232     N        0.09153    0.17625    0.66189    1.000
    Si233    Si       0.05726    0.18652    0.68606    1.000
    N234     N        0.19680    0.14882    0.68449    1.000
    Si235    Si       0.18246    0.16502    0.72189    1.000
    Si236    Si       0.17549    0.17226    0.65206    1.000
    Si237    Si       0.23939    0.13373    0.68205    1.000
    Si238    Si       0.11671    0.14607    0.68179    1.000
    N239     N        0.14038    0.15213    0.72011    1.000
    N240     N        0.14547    0.13891    0.64892    1.000
    N241     N        0.02202    0.15591    0.78589    1.000
    Si242    Si       0.08975    0.13349    0.85975    1.000
    N243     N        0.00315    0.13448    0.85555    1.000
    Si244    Si       0.02369    0.12494    0.81889    1.000
    N245     N        0.11199    0.17750    0.77744    1.000
    N246     N        0.12227    0.15756    0.84450    1.000
    N247     N        0.19260    0.16782    0.82650    1.000
    Si248    Si       0.16261    0.16200    0.85959    1.000
    Si249    Si       0.12674    0.14007    0.76069    1.000
    Si250    Si       0.19813    0.13223    0.79757    1.000
    N251     N        0.20693    0.15016    0.75362    1.000
    N252     N        0.00493    0.14551    0.92924    1.000
    N253     N        0.05943    0.15467    0.88379    1.000
    N254     N        0.02628    0.17055    0.98631    1.000
    Si255    Si       0.00915    0.18204    0.94831    1.000
    N256     N        0.09918    0.13257    0.94312    1.000
    Si257    Si       0.02555    0.13096    0.89409    1.000
    N258     N        0.17661    0.13094    0.88519    1.000
    Si259    Si       0.18252    0.13165    0.93056    1.000
    Si260    Si       0.12429    0.16334    0.96141    1.000
    N261     N        0.16268    0.16879    0.94105    1.000
    N262     N        0.02959    0.20275    0.06399    1.000
    Si263    Si       0.05800    0.22543    0.04236    1.000
    N264     N        0.08200    0.19288    0.02307    1.000
    Si265    Si       0.99682    0.22601    0.08183    1.000
    N266     N        0.04795    0.24023    0.00187    1.000
    N267     N        0.14018    0.22246    0.02945    1.000
    Si268    Si       0.21730    0.22219    0.07386    1.000
    N269     N        0.14235    0.23028    0.09442    1.000
    Si270    Si       0.17990    0.23342    0.01500    1.000
    N271     N        0.20582    0.23351    0.11591    1.000
    N272     N        0.20124    0.19584    0.00331    1.000
    Si273    Si       0.15671    0.18819    0.09360    1.000
    N274     N        0.99316    0.21290    0.12383    1.000
    N275     N        0.06021    0.20102    0.22302    1.000
    N276     N        0.08310    0.21045    0.15734    1.000
    Si277    Si       0.07562    0.24163    0.23466    1.000
    N278     N        0.17710    0.22337    0.21906    1.000
    N279     N        0.23316    0.23301    0.17667    1.000
    Si280    Si       0.22059    0.20978    0.21278    1.000
    Si281    Si       0.24032    0.21544    0.13672    1.000
    N282     N        0.00603    0.20957    0.27405    1.000
    Si283    Si       0.07606    0.20119    0.32937    1.000
    N284     N        0.03899    0.22741    0.33110    1.000
    N285     N        0.10662    0.23383    0.32570    1.000
    Si286    Si       0.20606    0.21324    0.34705    1.000
    N287     N        0.16002    0.20842    0.29241    1.000
    Si288    Si       0.14753    0.24183    0.31739    1.000
    Si289    Si       0.14683    0.21106    0.25046    1.000
    N290     N        0.11689    0.24363    0.24764    1.000
    N291     N        0.17285    0.24182    0.35250    1.000
    Si292    Si       0.03123    0.24333    0.37248    1.000
    N293     N        0.06595    0.19876    0.43577    1.000
    Si294    Si       0.09085    0.23033    0.41717    1.000
    Si295    Si       0.05429    0.22710    0.46664    1.000
    N296     N        0.01299    0.20836    0.39229    1.000
    N297     N        0.01811    0.24415    0.47983    1.000
    N298     N        0.23785    0.20838    0.48571    1.000
    Si299    Si       0.21179    0.21988    0.45276    1.000
    N300     N        0.12868    0.20958    0.41345    1.000
    N301     N        0.22351    0.20321    0.41553    1.000
    N302     N        0.17300    0.20561    0.46888    1.000
    Si303    Si       0.02576    0.22999    0.59712    1.000
    Si304    Si       0.04835    0.19609    0.53983    1.000
    N305     N        0.02887    0.23395    0.55279    1.000
    N306     N        0.04317    0.19384    0.61640    1.000
    N307     N        0.06384    0.20058    0.50067    1.000
    Si308    Si       0.11655    0.21150    0.56194    1.000
    N309     N        0.12171    0.20465    0.60487    1.000
    N310     N        0.14885    0.19619    0.53532    1.000
    Si311    Si       0.16323    0.22758    0.50675    1.000
    Si312    Si       0.23415    0.23892    0.51549    1.000
    N313     N        0.23612    0.21844    0.55380    1.000
    Si314    Si       0.21907    0.23732    0.58617    1.000
    N315     N        0.03793    0.22477    0.68470    1.000
    Si316    Si       0.99762    0.22372    0.70068    1.000
    N317     N        0.11416    0.22087    0.71973    1.000
    Si318    Si       0.09024    0.20051    0.74875    1.000
    N319     N        0.23600    0.22001    0.62284    1.000
    N320     N        0.16091    0.21308    0.65987    1.000
    Si321    Si       0.21314    0.23275    0.74305    1.000
    Si322    Si       0.14908    0.23365    0.62326    1.000
    Si323    Si       0.15175    0.22859    0.69942    1.000
    N324     N        0.18210    0.20802    0.72223    1.000
    N325     N        0.06441    0.22493    0.77242    1.000
    Si326    Si       0.03716    0.19633    0.79672    1.000
    N327     N        0.00307    0.22335    0.80522    1.000
    Si328    Si       0.99418    0.23705    0.84718    1.000
    N329     N        0.06597    0.19294    0.83002    1.000
    Si330    Si       0.10810    0.18963    0.81888    1.000
    Si331    Si       0.05819    0.19599    0.87221    1.000
    N332     N        0.22592    0.21328    0.77956    1.000
    Si333    Si       0.16526    0.23460    0.85394    1.000
    N334     N        0.13187    0.22266    0.82839    1.000
    Si335    Si       0.21908    0.20068    0.81924    1.000
    N336     N        0.20276    0.23889    0.83404    1.000
    N337     N        0.02348    0.22152    0.87493    1.000
    Si338    Si       0.01432    0.23463    0.91560    1.000
    Si339    Si       0.06191    0.20158    0.98234    1.000
    N340     N        0.10047    0.20045    0.95947    1.000
    N341     N        0.04087    0.21062    0.94159    1.000
    N342     N        0.09106    0.22367    0.88791    1.000
    Si343    Si       0.10292    0.23246    0.92952    1.000
    N344     N        0.20771    0.23413    0.93180    1.000
    N345     N        0.17021    0.19991    0.88129    1.000
    Si346    Si       0.17501    0.20578    0.92270    1.000
    N347     N        0.14582    0.23840    0.93098    1.000
    Si348    Si       0.24101    0.19775    0.98599    1.000
    Si349    Si       0.05412    0.27852    0.09308    1.000
    N350     N        0.01405    0.26577    0.08264    1.000
    N351     N        0.08143    0.25565    0.06482    1.000
    Si352    Si       0.22709    0.29028    0.03444    1.000
    N353     N        0.14384    0.29031    0.04539    1.000
    Si354    Si       0.12455    0.25126    0.05922    1.000
    N355     N        0.16752    0.29246    0.11142    1.000
    N356     N        0.20766    0.25082    0.04363    1.000
    Si357    Si       0.04839    0.28838    0.17489    1.000
    N358     N        0.07201    0.26087    0.19686    1.000
    N359     N        0.06900    0.27542    0.13513    1.000
    Si360    Si       0.09715    0.25003    0.16098    1.000
    N361     N        0.19741    0.28554    0.17357    1.000
    Si362    Si       0.16958    0.25948    0.19462    1.000
    Si363    Si       0.16543    0.24946    0.12251    1.000
    N364     N        0.14218    0.25186    0.16018    1.000
    N365     N        0.15444    0.29258    0.22100    1.000
    Si366    Si       0.08660    0.26753    0.34656    1.000
    N367     N        0.05691    0.29396    0.32826    1.000
    N368     N        0.05440    0.26056    0.26934    1.000
    N369     N        0.98705    0.27682    0.29805    1.000
    Si370    Si       0.02208    0.24543    0.29337    1.000
    N371     N        0.11968    0.29027    0.36352    1.000
    N372     N        0.15631    0.27710    0.29205    1.000
    Si373    Si       0.12923    0.28431    0.25683    1.000
    N374     N        0.00984    0.27981    0.37712    1.000
    Si375    Si       0.00103    0.28324    0.47091    1.000
    N376     N        0.07668    0.25805    0.44709    1.000
    Si377    Si       0.07343    0.29989    0.46039    1.000
    N378     N        0.07266    0.24654    0.38194    1.000
    N379     N        0.15769    0.29669    0.41183    1.000
    Si380    Si       0.18368    0.30031    0.44678    1.000
    N381     N        0.21080    0.26468    0.44451    1.000
    Si382    Si       0.16253    0.28000    0.37011    1.000
    Si383    Si       0.08988    0.27087    0.59876    1.000
    N384     N        0.10187    0.25355    0.55983    1.000
    Si385    Si       0.11213    0.28069    0.52454    1.000
    N386     N        0.05169    0.25819    0.61748    1.000
    Si387    Si       0.00127    0.24724    0.52179    1.000
    N388     N        0.19315    0.25515    0.51939    1.000
    Si389    Si       0.18004    0.29725    0.52632    1.000
    N390     N        0.12996    0.25284    0.49737    1.000
    N391     N        0.17811    0.24054    0.59337    1.000
    Si392    Si       0.04567    0.26432    0.66306    1.000
    N393     N        0.01329    0.29524    0.66565    1.000
    N394     N        0.07836    0.28581    0.68361    1.000
    N395     N        0.12060    0.26651    0.62984    1.000
    N396     N        0.15071    0.27121    0.69561    1.000
    Si397    Si       0.18060    0.28987    0.71705    1.000
    Si398    Si       0.12175    0.28777    0.66726    1.000
    Si399    Si       0.06379    0.26602    0.78867    1.000
    N400     N        0.07761    0.27140    0.83145    1.000
    N401     N        0.02444    0.28478    0.78342    1.000
    N402     N        0.08888    0.29007    0.76137    1.000
    Si403    Si       0.10524    0.24761    0.85441    1.000
    Si404    Si       0.99149    0.25740    0.78085    1.000
    Si405    Si       0.23049    0.27220    0.83857    1.000
    N406     N        0.14098    0.26865    0.86689    1.000
    N407     N        0.19430    0.27063    0.75300    1.000
    Si408    Si       0.18724    0.29930    0.78637    1.000
    Si409    Si       0.04606    0.26740    0.96708    1.000
    N410     N        0.01416    0.27086    0.93718    1.000
    N411     N        0.08112    0.26938    0.94008    1.000
    Si412    Si       0.17659    0.26468    0.94530    1.000
    N413     N        0.23873    0.30145    0.99353    1.000
    N414     N        0.22618    0.27751    0.88056    1.000
    N415     N        0.17318    0.26688    0.98926    1.000
    N416     N        0.05222    0.32296    0.08957    1.000
    Si417    Si       0.02427    0.35066    0.10189    1.000
    N418     N        0.00942    0.34815    0.02977    1.000
    N419     N        0.20663    0.31951    0.05913    1.000
    Si420    Si       0.16458    0.31483    0.07422    1.000
    N421     N        0.14577    0.35325    0.07484    1.000
    Si422    Si       0.23285    0.34244    0.08567    1.000
    Si423    Si       0.15007    0.30178    0.00418    1.000
    N424     N        0.17695    0.33662    0.99413    1.000
    N425     N        0.00691    0.30129    0.17764    1.000
    Si426    Si       0.02091    0.34397    0.18376    1.000
    N427     N        0.06162    0.32739    0.19295    1.000
    N428     N        0.16650    0.34533    0.16158    1.000
    Si429    Si       0.16013    0.33213    0.20448    1.000
    N430     N        0.18561    0.35883    0.22892    1.000
    N431     N        0.21599    0.34152    0.12403    1.000
    N432     N        0.12499    0.35365    0.21595    1.000
    Si433    Si       0.18911    0.31181    0.14113    1.000
    N434     N        0.02833    0.32670    0.27399    1.000
    N435     N        0.10016    0.31426    0.26854    1.000
    Si436    Si       0.03133    0.31444    0.35627    1.000
    N437     N        0.99539    0.33119    0.33668    1.000
    Si438    Si       0.99162    0.31974    0.29401    1.000
    Si439    Si       0.06233    0.30313    0.28516    1.000
    Si440    Si       0.10976    0.35550    0.28148    1.000
    N441     N        0.21064    0.33077    0.27969    1.000
    Si442    Si       0.17752    0.31506    0.30338    1.000
    N443     N        0.15306    0.35067    0.30838    1.000
    Si444    Si       0.22471    0.32720    0.36623    1.000
    N445     N        0.18653    0.31016    0.34915    1.000
    Si446    Si       0.16560    0.35315    0.35069    1.000
    N447     N        0.05205    0.34756    0.37214    1.000
    N448     N        0.08580    0.32426    0.42479    1.000
    N449     N        0.03330    0.31194    0.46786    1.000
    Si450    Si       0.02557    0.35433    0.47618    1.000
    Si451    Si       0.05669    0.35564    0.41576    1.000
    N452     N        0.17489    0.31866    0.48707    1.000
    N453     N        0.21508    0.32618    0.43314    1.000
    Si454    Si       0.12106    0.31842    0.39742    1.000
    N455     N        0.13440    0.35667    0.38086    1.000
    N456     N        0.01653    0.33102    0.60696    1.000
    Si457    Si       0.04953    0.33901    0.58111    1.000
    N458     N        0.03145    0.32879    0.54420    1.000
    N459     N        0.08524    0.31376    0.58787    1.000
    Si460    Si       0.09529    0.35620    0.50413    1.000
    N461     N        0.09300    0.31007    0.49791    1.000
    Si462    Si       0.11814    0.33649    0.57015    1.000
    Si463    Si       0.18114    0.35204    0.56919    1.000
    N464     N        0.20252    0.31556    0.56138    1.000
    N465     N        0.14880    0.35164    0.59809    1.000
    Si466    Si       0.23622    0.31605    0.58783    1.000
    N467     N        0.13938    0.30776    0.54393    1.000
    N468     N        0.06566    0.35481    0.64323    1.000
    Si469    Si       0.02832    0.33404    0.64707    1.000
    N470     N        0.02948    0.32205    0.73079    1.000
    N471     N        0.09091    0.34589    0.71522    1.000
    Si472    Si       0.09756    0.35325    0.67381    1.000
    Si473    Si       0.99331    0.33649    0.70699    1.000
    Si474    Si       0.07092    0.30597    0.72242    1.000
    N475     N        0.00647    0.36202    0.67188    1.000
    Si476    Si       0.21613    0.34327    0.73234    1.000
    N477     N        0.13129    0.32908    0.66114    1.000
    N478     N        0.20589    0.31732    0.69747    1.000
    N479     N        0.22561    0.33038    0.62724    1.000
    Si480    Si       0.23682    0.31529    0.66618    1.000
    Si481    Si       0.03398    0.33016    0.77634    1.000
    Si482    Si       0.06870    0.31207    0.84606    1.000
    N483     N        0.07006    0.33066    0.80630    1.000
    Si484    Si       0.11127    0.31798    0.78824    1.000
    N485     N        0.10803    0.32613    0.86201    1.000
    N486     N        0.99838    0.34729    0.79524    1.000
    N487     N        0.03351    0.33611    0.86448    1.000
    N488     N        0.18498    0.33642    0.76206    1.000
    Si489    Si       0.14841    0.30912    0.85259    1.000
    N490     N        0.14954    0.30892    0.80800    1.000
    N491     N        0.12069    0.35872    0.77559    1.000
    N492     N        0.22226    0.30558    0.81115    1.000
    N493     N        0.08126    0.34873    0.92257    1.000
    Si494    Si       0.02238    0.34269    0.98858    1.000
    Si495    Si       0.08451    0.31511    0.94909    1.000
    N496     N        0.04803    0.31103    0.97689    1.000
    Si497    Si       0.10505    0.36218    0.88419    1.000
    N498     N        0.19516    0.30266    0.93596    1.000
    Si499    Si       0.21125    0.32802    0.96709    1.000
    N500     N        0.18061    0.32917    0.87439    1.000
    Si501    Si       0.21277    0.31437    0.89722    1.000
    N502     N        0.11806    0.31117    0.97785    1.000
    N503     N        0.01442    0.38973    0.08465    1.000
    N504     N        0.99805    0.41575    0.02031    1.000
    Si505    Si       0.98986    0.38247    0.04787    1.000
    N506     N        0.09944    0.37583    0.12094    1.000
    N507     N        0.19811    0.40742    0.02663    1.000
    Si508    Si       0.13344    0.39010    0.09867    1.000
    Si509    Si       0.23009    0.41761    0.05324    1.000
    N510     N        0.17405    0.40073    0.11333    1.000
    Si511    Si       0.06545    0.38826    0.14433    1.000
    N512     N        0.08330    0.39489    0.18209    1.000
    N513     N        0.01459    0.37043    0.21805    1.000
    Si514    Si       0.08289    0.36041    0.21080    1.000
    N515     N        0.03141    0.36026    0.14541    1.000
    N516     N        0.07187    0.37881    0.24818    1.000
    Si517    Si       0.19331    0.37486    0.14401    1.000
    N518     N        0.21801    0.39501    0.17501    1.000
    Si519    Si       0.15118    0.38585    0.23330    1.000
    N520     N        0.15379    0.41650    0.20112    1.000
    N521     N        0.01956    0.39885    0.28630    1.000
    Si522    Si       0.06690    0.38064    0.34742    1.000
    Si523    Si       0.03081    0.36728    0.25968    1.000
    N524     N        0.03744    0.41130    0.36023    1.000
    N525     N        0.09762    0.41310    0.36128    1.000
    Si526    Si       0.09166    0.41621    0.26120    1.000
    N527     N        0.08127    0.36221    0.31264    1.000
    Si528    Si       0.15715    0.40320    0.30198    1.000
    N529     N        0.12833    0.39445    0.26823    1.000
    N530     N        0.19264    0.40634    0.27466    1.000
    N531     N        0.16687    0.39799    0.34734    1.000
    Si532    Si       0.21309    0.36894    0.26077    1.000
    Si533    Si       0.20742    0.40600    0.36660    1.000
    N534     N        0.07800    0.39345    0.42091    1.000
    N535     N        0.05818    0.37811    0.49318    1.000
    N536     N        0.01734    0.36494    0.43513    1.000
    Si537    Si       0.11049    0.40034    0.44927    1.000
    Si538    Si       0.05932    0.42346    0.49778    1.000
    Si539    Si       0.18220    0.42000    0.43969    1.000
    N540     N        0.12577    0.37183    0.47763    1.000
    N541     N        0.19404    0.38288    0.46179    1.000
    N542     N        0.14366    0.41305    0.42113    1.000
    Si543    Si       0.21953    0.36963    0.42462    1.000
    Si544    Si       0.13353    0.40037    0.38157    1.000
    N545     N        0.21615    0.41552    0.41177    1.000
    N546     N        0.20690    0.36356    0.38082    1.000
    Si547    Si       0.16800    0.36242    0.49079    1.000
    N548     N        0.04488    0.38458    0.58389    1.000
    Si549    Si       0.08043    0.40301    0.56257    1.000
    Si550    Si       0.00416    0.40261    0.58190    1.000
    N551     N        0.10173    0.41604    0.59789    1.000
    N552     N        0.09957    0.36645    0.54566    1.000
    N553     N        0.98969    0.41265    0.54158    1.000
    N554     N        0.20794    0.38215    0.58505    1.000
    Si555    Si       0.19712    0.40806    0.55156    1.000
    N556     N        0.17395    0.37338    0.53284    1.000
    Si557    Si       0.07692    0.39584    0.63017    1.000
    N558     N        0.09944    0.41589    0.73972    1.000
    Si559    Si       0.01493    0.40308    0.67780    1.000
    N560     N        0.03369    0.41674    0.71595    1.000
    N561     N        0.11411    0.38990    0.65766    1.000
    N562     N        0.04266    0.41911    0.64824    1.000
    N563     N        0.15752    0.42052    0.70427    1.000
    N564     N        0.21776    0.38517    0.72730    1.000
    N565     N        0.18509    0.38304    0.65392    1.000
    Si566    Si       0.22097    0.37538    0.62801    1.000
    Si567    Si       0.14867    0.36369    0.64043    1.000
    Si568    Si       0.19718    0.40524    0.69268    1.000
    N569     N        0.01129    0.39662    0.84567    1.000
    N570     N        0.04887    0.37365    0.76411    1.000
    N571     N        0.08145    0.39122    0.86150    1.000
    Si572    Si       0.04044    0.37867    0.87170    1.000
    Si573    Si       0.01435    0.39639    0.74957    1.000
    Si574    Si       0.09070    0.37410    0.74902    1.000
    N575     N        0.99411    0.41840    0.78154    1.000
    Si576    Si       0.15508    0.42070    0.81719    1.000
    N577     N        0.16984    0.40686    0.77450    1.000
    Si578    Si       0.21267    0.40657    0.76479    1.000
    N579     N        0.16250    0.37924    0.83000    1.000
    N580     N        0.23651    0.38095    0.79482    1.000
    Si581    Si       0.16171    0.36394    0.78866    1.000
    Si582    Si       0.01578    0.41196    0.98194    1.000
    N583     N        0.03268    0.39926    0.90975    1.000
    Si584    Si       0.06358    0.38499    0.93763    1.000
    N585     N        0.04115    0.37926    0.97543    1.000
    N586     N        0.09766    0.41327    0.93729    1.000
    Si587    Si       0.17411    0.37226    0.87019    1.000
    N588     N        0.20957    0.39393    0.87891    1.000
    Si589    Si       0.18979    0.37893    0.99514    1.000
    Si590    Si       0.14063    0.40867    0.93614    1.000
    N591     N        0.14186    0.38288    0.89761    1.000
    N592     N        0.16361    0.40752    0.97312    1.000
    N593     N        0.22619    0.37127    0.97048    1.000
    N594     N        0.02619    0.45955    0.06864    1.000
    Si595    Si       0.01611    0.45364    0.02482    1.000
    Si596    Si       0.01550    0.43010    0.10210    1.000
    N597     N        0.11606    0.43112    0.09199    1.000
    Si598    Si       0.13346    0.46191    0.06778    1.000
    N599     N        0.13293    0.45156    0.02438    1.000
    Si600    Si       0.19119    0.44251    0.11125    1.000
    N601     N        0.22847    0.44473    0.08892    1.000
    Si602    Si       0.17164    0.43652    0.00626    1.000
    N603     N        0.17016    0.47135    0.08651    1.000
    N604     N        0.19992    0.47070    0.00614    1.000
    Si605    Si       0.08887    0.44892    0.12190    1.000
    N606     N        0.05251    0.42680    0.12667    1.000
    N607     N        0.09174    0.44340    0.22639    1.000
    Si608    Si       0.99608    0.46805    0.18790    1.000
    Si609    Si       0.06296    0.47648    0.22795    1.000
    Si610    Si       0.11157    0.42583    0.19149    1.000
    N611     N        0.18489    0.45227    0.15366    1.000
    N612     N        0.11568    0.45340    0.15853    1.000
    Si613    Si       0.19245    0.42847    0.18887    1.000
    N614     N        0.21982    0.44990    0.21487    1.000
    Si615    Si       0.03447    0.44015    0.29199    1.000
    N616     N        0.07714    0.43291    0.29843    1.000
    Si617    Si       0.10307    0.44387    0.32924    1.000
    N618     N        0.02433    0.47060    0.32241    1.000
    N619     N        0.02985    0.46010    0.25357    1.000
    N620     N        0.14160    0.44500    0.30934    1.000
    N621     N        0.20684    0.45105    0.35435    1.000
    Si622    Si       0.21853    0.43823    0.25893    1.000
    N623     N        0.19354    0.47837    0.26119    1.000
    Si624    Si       0.15678    0.47985    0.28737    1.000
    N625     N        0.09121    0.46313    0.40437    1.000
    Si626    Si       0.06521    0.42729    0.39526    1.000
    Si627    Si       0.00078    0.42762    0.37890    1.000
    Si628    Si       0.08981    0.47196    0.44726    1.000
    N629     N        0.09231    0.43421    0.47030    1.000
    Si630    Si       0.01870    0.46401    0.44805    1.000
    N631     N        0.02275    0.43422    0.47946    1.000
    N632     N        0.02600    0.44647    0.40903    1.000
    Si633    Si       0.21700    0.45208    0.48983    1.000
    N634     N        0.18175    0.45445    0.46536    1.000
    N635     N        0.06721    0.43626    0.53916    1.000
    Si636    Si       0.07598    0.47293    0.56204    1.000
    N637     N        0.05698    0.47341    0.60152    1.000
    Si638    Si       0.99107    0.44827    0.50726    1.000
    N639     N        0.99450    0.48137    0.53648    1.000
    N640     N        0.99775    0.44502    0.59938    1.000
    Si641    Si       0.13846    0.44422    0.59598    1.000
    N642     N        0.17620    0.43963    0.57416    1.000
    Si643    Si       0.20596    0.46692    0.59070    1.000
    N644     N        0.11878    0.47785    0.57703    1.000
    N645     N        0.22385    0.42409    0.52384    1.000
    Si646    Si       0.02792    0.45467    0.62802    1.000
    N647     N        0.09536    0.45391    0.68574    1.000
    Si648    Si       0.06982    0.44177    0.71813    1.000
    Si649    Si       0.12842    0.42871    0.67329    1.000
    Si650    Si       0.18223    0.47210    0.64688    1.000
    N651     N        0.21762    0.44766    0.62835    1.000
    N652     N        0.22394    0.44041    0.69145    1.000
    N653     N        0.14730    0.44950    0.63855    1.000
    Si654    Si       0.14105    0.42646    0.74467    1.000
    N655     N        0.05270    0.44590    0.81749    1.000
    Si656    Si       0.01156    0.43261    0.82028    1.000
    Si657    Si       0.08502    0.43202    0.84319    1.000
    N658     N        0.99154    0.46771    0.83521    1.000
    N659     N        0.11779    0.44114    0.81389    1.000
    N660     N        0.17678    0.45018    0.84036    1.000
    N661     N        0.22598    0.44802    0.76522    1.000
    Si662    Si       0.21212    0.43445    0.86301    1.000
    Si663    Si       0.12299    0.47751    0.78987    1.000
    N664     N        0.14094    0.47092    0.75037    1.000
    Si665    Si       0.24025    0.46974    0.80215    1.000
    N666     N        0.02463    0.47170    0.90498    1.000
    Si667    Si       0.00542    0.43154    0.91470    1.000
    N668     N        0.08726    0.45770    0.87858    1.000
    Si669    Si       0.10251    0.45309    0.91873    1.000
    N670     N        0.03625    0.45012    0.98605    1.000
    Si671    Si       0.99125    0.47879    0.87588    1.000
    N672     N        0.21137    0.45748    0.89740    1.000
    Si673    Si       0.22810    0.47183    0.93504    1.000
    N674     N        0.14479    0.45263    0.92163    1.000
    Si675    Si       0.01198    0.50001    0.06383    1.000
    Si676    Si       0.08076    0.51762    0.08481    1.000
    N677     N        0.04163    0.53226    0.07278    1.000
    N678     N        0.10965    0.49900    0.06078    1.000
    N679     N        0.07558    0.50462    0.00410    1.000
    N680     N        0.07178    0.49068    0.11698    1.000
    N681     N        0.99377    0.49095    0.02479    1.000
    Si682    Si       0.11498    0.49163    0.01694    1.000
    Si683    Si       0.17731    0.51278    0.09726    1.000
    N684     N        0.21598    0.51891    0.11645    1.000
    N685     N        0.21145    0.53665    0.00912    1.000
    N686     N        0.14441    0.51498    0.99353    1.000
    N687     N        0.07719    0.51425    0.24198    1.000
    Si688    Si       0.05598    0.50556    0.15585    1.000
    N689     N        0.09305    0.52554    0.16809    1.000
    N690     N        0.03997    0.48107    0.18799    1.000
    Si691    Si       0.22987    0.53446    0.15632    1.000
    Si692    Si       0.15060    0.47879    0.15931    1.000
    N693     N        0.23846    0.50551    0.18897    1.000
    N694     N        0.16111    0.49491    0.19765    1.000
    Si695    Si       0.15338    0.52583    0.22703    1.000
    Si696    Si       0.20422    0.49291    0.21679    1.000
    N697     N        0.14722    0.51224    0.13034    1.000
    N698     N        0.19665    0.53374    0.23303    1.000
    Si699    Si       0.05187    0.50293    0.33442    1.000
    N700     N        0.05997    0.53089    0.30446    1.000
    N701     N        0.00922    0.53166    0.26228    1.000
    Si702    Si       0.09445    0.53475    0.27670    1.000
    Si703    Si       0.99761    0.49081    0.25866    1.000
    N704     N        0.03729    0.52536    0.37007    1.000
    N705     N        0.08973    0.48349    0.34162    1.000
    N706     N        0.13778    0.51331    0.26542    1.000
    N707     N        0.17621    0.50534    0.31696    1.000
    Si708    Si       0.20382    0.52171    0.27726    1.000
    Si709    Si       0.18797    0.48894    0.35633    1.000
    N710     N        0.21838    0.51838    0.36912    1.000
    Si711    Si       0.99335    0.53164    0.37435    1.000
    N712     N        0.98965    0.48887    0.47358    1.000
    N713     N        0.05169    0.49047    0.45042    1.000
    Si714    Si       0.04042    0.53208    0.45815    1.000
    Si715    Si       0.11031    0.49258    0.38050    1.000
    N716     N        0.18494    0.52695    0.47012    1.000
    Si717    Si       0.15983    0.49134    0.47440    1.000
    N718     N        0.15258    0.48902    0.38152    1.000
    N719     N        0.12137    0.49994    0.45737    1.000
    Si720    Si       0.22341    0.53474    0.48976    1.000
    N721     N        0.08477    0.50780    0.53556    1.000
    N722     N        0.03415    0.53669    0.50119    1.000
    Si723    Si       0.99659    0.51482    0.50910    1.000
    N724     N        0.15237    0.48639    0.51667    1.000
    Si725    Si       0.12799    0.50485    0.54511    1.000
    N726     N        0.18667    0.49817    0.61386    1.000
    N727     N        0.23593    0.49090    0.49626    1.000
    Si728    Si       0.98784    0.51012    0.67014    1.000
    Si729    Si       0.05031    0.50938    0.62459    1.000
    N730     N        0.05567    0.48367    0.72233    1.000
    N731     N        0.99671    0.51886    0.71120    1.000
    Si732    Si       0.08601    0.49721    0.68893    1.000
    N733     N        0.01992    0.49032    0.64971    1.000
    N734     N        0.08137    0.52141    0.65303    1.000
    Si735    Si       0.02780    0.51211    0.74167    1.000
    N736     N        0.17423    0.48922    0.68459    1.000
    N737     N        0.11436    0.52301    0.71083    1.000
    N738     N        0.23820    0.50494    0.71815    1.000
    Si739    Si       0.20345    0.52026    0.69813    1.000
    N740     N        0.17617    0.53178    0.72993    1.000
    Si741    Si       0.15006    0.49951    0.71906    1.000
    N742     N        0.04632    0.50613    0.84839    1.000
    N743     N        0.01989    0.49393    0.78015    1.000
    N744     N        0.08795    0.50400    0.79205    1.000
    Si745    Si       0.05325    0.48837    0.80993    1.000
    N746     N        0.21945    0.50011    0.82550    1.000
    N747     N        0.14835    0.50507    0.81173    1.000
    Si748    Si       0.17825    0.49423    0.84136    1.000
    Si749    Si       0.23765    0.53628    0.83989    1.000
    N750     N        0.02892    0.52906    0.96891    1.000
    Si751    Si       0.05281    0.48896    0.96891    1.000
    Si752    Si       0.06090    0.49362    0.88984    1.000
    N753     N        0.07908    0.48749    0.93496    1.000
    N754     N        0.07165    0.53732    0.89261    1.000
    N755     N        0.19519    0.49806    0.94406    1.000
    Si756    Si       0.17469    0.48150    0.90874    1.000
    Si757    Si       0.18652    0.50776    0.98785    1.000
    N758     N        0.15973    0.50773    0.87908    1.000
    N759     N        0.10352    0.55344    0.09828    1.000
    N760     N        0.01437    0.59167    0.09917    1.000
    N761     N        0.04724    0.58176    0.01163    1.000
    Si762    Si       0.01334    0.54727    0.10460    1.000
    N763     N        0.11520    0.57094    0.02656    1.000
    Si764    Si       0.13289    0.56871    0.06764    1.000
    Si765    Si       0.20483    0.56127    0.04591    1.000
    N766     N        0.17095    0.54710    0.06967    1.000
    N767     N        0.04888    0.56464    0.20536    1.000
    Si768    Si       0.01521    0.56245    0.17737    1.000
    Si769    Si       0.08619    0.54192    0.20778    1.000
    N770     N        0.02762    0.53695    0.14497    1.000
    N771     N        0.14480    0.58011    0.14549    1.000
    Si772    Si       0.22016    0.56827    0.21880    1.000
    N773     N        0.12518    0.55831    0.21683    1.000
    Si774    Si       0.11920    0.54388    0.13894    1.000
    N775     N        0.21260    0.56977    0.17660    1.000
    N776     N        0.00982    0.57433    0.31845    1.000
    Si777    Si       0.03396    0.56226    0.28508    1.000
    N778     N        0.07395    0.58310    0.26652    1.000
    Si779    Si       0.01448    0.59350    0.35727    1.000
    N780     N        0.00944    0.59232    0.25377    1.000
    Si781    Si       0.10443    0.59972    0.29326    1.000
    N782     N        0.05720    0.59106    0.37462    1.000
    N783     N        0.11721    0.55828    0.30854    1.000
    N784     N        0.18802    0.56179    0.29342    1.000
    N785     N        0.16880    0.56130    0.35826    1.000
    Si786    Si       0.15725    0.54622    0.32000    1.000
    N787     N        0.22912    0.59419    0.35200    1.000
    Si788    Si       0.06747    0.55217    0.38979    1.000
    N789     N        0.07179    0.54960    0.43431    1.000
    N790     N        0.00318    0.54675    0.44179    1.000
    Si791    Si       0.99535    0.58520    0.42711    1.000
    Si792    Si       0.11072    0.54142    0.45214    1.000
    N793     N        0.10428    0.55941    0.49258    1.000
    N794     N        0.10710    0.53815    0.38166    1.000
    Si795    Si       0.13601    0.57084    0.38599    1.000
    Si796    Si       0.20862    0.56122    0.37203    1.000
    N797     N        0.20972    0.56756    0.41540    1.000
    N798     N        0.21985    0.57818    0.48001    1.000
    Si799    Si       0.18210    0.56716    0.45103    1.000
    N800     N        0.14049    0.56710    0.43054    1.000
    N801     N        0.06628    0.57581    0.55188    1.000
    Si802    Si       0.05478    0.57162    0.59326    1.000
    N803     N        0.08784    0.58347    0.61759    1.000
    Si804    Si       0.07308    0.54681    0.52081    1.000
    N805     N        0.03035    0.53884    0.60098    1.000
    Si806    Si       0.13745    0.58194    0.51807    1.000
    N807     N        0.19554    0.56620    0.59694    1.000
    Si808    Si       0.18486    0.55559    0.55586    1.000
    N809     N        0.14383    0.54638    0.54632    1.000
    N810     N        0.18149    0.59500    0.53597    1.000
    N811     N        0.21752    0.53426    0.53616    1.000
    N812     N        0.99026    0.58902    0.69826    1.000
    Si813    Si       0.99140    0.55927    0.72900    1.000
    Si814    Si       0.10280    0.55885    0.64945    1.000
    N815     N        0.09235    0.58182    0.68621    1.000
    Si816    Si       0.11083    0.56677    0.72216    1.000
    N817     N        0.21086    0.54288    0.66354    1.000
    Si818    Si       0.23352    0.58059    0.66720    1.000
    N819     N        0.14492    0.55002    0.64183    1.000
    Si820    Si       0.18480    0.54048    0.62893    1.000
    N821     N        0.14409    0.59542    0.72595    1.000
    N822     N        0.05113    0.56742    0.81697    1.000
    Si823    Si       0.05681    0.57592    0.77553    1.000
    N824     N        0.09729    0.56361    0.76379    1.000
    Si825    Si       0.01877    0.59055    0.83370    1.000
    N826     N        0.10998    0.55194    0.83905    1.000
    Si827    Si       0.06891    0.54596    0.85034    1.000
    N828     N        0.02794    0.55644    0.75104    1.000
    N829     N        0.00658    0.57170    0.87012    1.000
    N830     N        0.22200    0.56757    0.81427    1.000
    N831     N        0.17240    0.57471    0.85721    1.000
    N832     N        0.15830    0.56472    0.78804    1.000
    Si833    Si       0.18155    0.58553    0.81711    1.000
    N834     N        0.21235    0.59212    0.75015    1.000
    Si835    Si       0.17340    0.57033    0.74797    1.000
    Si836    Si       0.11803    0.54129    0.79625    1.000
    Si837    Si       0.08774    0.56608    0.92329    1.000
    N838     N        0.09436    0.55516    0.96388    1.000
    Si839    Si       0.06122    0.54495    0.99152    1.000
    Si840    Si       0.01670    0.59087    0.90861    1.000
    N841     N        0.05761    0.59625    0.92607    1.000
    Si842    Si       0.99167    0.54992    0.97129    1.000
    Si843    Si       0.14049    0.54989    0.87222    1.000
    N844     N        0.19592    0.59672    0.91776    1.000
    N845     N        0.12921    0.57258    0.90779    1.000
    Si846    Si       0.15571    0.59616    0.93297    1.000
    N847     N        0.16089    0.58292    0.97545    1.000
    Si848    Si       0.20865    0.58582    0.87768    1.000
    N849     N        0.22993    0.54808    0.88187    1.000
    Si850    Si       0.13106    0.55530    0.98965    1.000
    Si851    Si       0.23071    0.59719    0.94681    1.000
    N852     N        0.01047    0.63737    0.04132    1.000
    Si853    Si       0.03230    0.62127    0.07545    1.000
    N854     N        0.07309    0.61657    0.06040    1.000
    Si855    Si       0.08695    0.64648    0.09164    1.000
    Si856    Si       0.01071    0.60841    0.00803    1.000
    Si857    Si       0.08464    0.60317    0.02134    1.000
    N858     N        0.04583    0.65551    0.10084    1.000
    N859     N        0.14114    0.61040    0.07767    1.000
    N860     N        0.14747    0.64155    0.01244    1.000
    Si861    Si       0.23307    0.63333    0.02095    1.000
    Si862    Si       0.14251    0.64962    0.05346    1.000
    N863     N        0.20225    0.60504    0.03455    1.000
    Si864    Si       0.14291    0.61456    0.12016    1.000
    Si865    Si       0.17874    0.61181    0.99986    1.000
    Si866    Si       0.07541    0.65701    0.23084    1.000
    N867     N        0.00906    0.60497    0.17106    1.000
    N868     N        0.09589    0.62160    0.21010    1.000
    N869     N        0.03754    0.63953    0.22550    1.000
    Si870    Si       0.00941    0.64230    0.19425    1.000
    N871     N        0.10767    0.64088    0.13100    1.000
    Si872    Si       0.10587    0.65228    0.17391    1.000
    Si873    Si       0.05001    0.59745    0.23164    1.000
    Si874    Si       0.22927    0.64235    0.23250    1.000
    N875     N        0.18298    0.63059    0.13205    1.000
    N876     N        0.20963    0.60432    0.24264    1.000
    N877     N        0.16043    0.61817    0.19780    1.000
    Si878    Si       0.13048    0.60001    0.22117    1.000
    Si879    Si       0.18080    0.59709    0.16470    1.000
    N880     N        0.08609    0.62820    0.31895    1.000
    N881     N        0.00683    0.63471    0.35748    1.000
    Si882    Si       0.08461    0.62161    0.36343    1.000
    Si883    Si       0.00166    0.63615    0.25785    1.000
    N884     N        0.02370    0.65368    0.29190    1.000
    N885     N        0.13766    0.60533    0.26564    1.000
    N886     N        0.18624    0.63390    0.30493    1.000
    Si887    Si       0.20942    0.63145    0.34148    1.000
    Si888    Si       0.18083    0.60175    0.27692    1.000
    N889     N        0.08699    0.61859    0.45138    1.000
    Si890    Si       0.02619    0.64608    0.39654    1.000
    Si891    Si       0.04812    0.62890    0.46267    1.000
    N892     N        0.01961    0.61934    0.42986    1.000
    N893     N        0.12391    0.61164    0.37827    1.000
    N894     N        0.15657    0.59784    0.47903    1.000
    N895     N        0.19047    0.64755    0.37780    1.000
    Si896    Si       0.14854    0.64818    0.38948    1.000
    N897     N        0.14550    0.65111    0.43236    1.000
    Si898    Si       0.12998    0.61099    0.44754    1.000
    Si899    Si       0.07092    0.62582    0.61123    1.000
    N900     N        0.03231    0.60760    0.60812    1.000
    Si901    Si       0.07311    0.61634    0.53851    1.000
    N902     N        0.04283    0.62738    0.50819    1.000
    N903     N        0.07817    0.64796    0.57402    1.000
    Si904    Si       0.99010    0.61406    0.59803    1.000
    N905     N        0.11517    0.62033    0.53092    1.000
    Si906    Si       0.23346    0.64821    0.54205    1.000
    N907     N        0.20017    0.63374    0.61499    1.000
    Si908    Si       0.22358    0.60011    0.59899    1.000
    Si909    Si       0.12006    0.65721    0.55683    1.000
    N910     N        0.22949    0.63789    0.49756    1.000
    Si911    Si       0.19468    0.60946    0.49894    1.000
    N912     N        0.13931    0.65877    0.59584    1.000
    N913     N        0.10262    0.64471    0.71582    1.000
    Si914    Si       0.99983    0.62995    0.70721    1.000
    N915     N        0.04356    0.63121    0.70400    1.000
    N916     N        0.08756    0.64267    0.64659    1.000
    Si917    Si       0.08043    0.62216    0.68425    1.000
    Si918    Si       0.06326    0.64809    0.73866    1.000
    Si919    Si       0.21205    0.62956    0.72544    1.000
    N920     N        0.15287    0.65001    0.66600    1.000
    N921     N        0.20833    0.61270    0.68379    1.000
    Si922    Si       0.19512    0.64404    0.65825    1.000
    Si923    Si       0.14433    0.63913    0.71165    1.000
    N924     N        0.17832    0.65635    0.73390    1.000
    N925     N        0.06205    0.61924    0.77087    1.000
    N926     N        0.04232    0.62778    0.83851    1.000
    Si927    Si       0.07404    0.63660    0.80935    1.000
    N928     N        0.11655    0.63479    0.81464    1.000
    N929     N        0.18939    0.62799    0.81230    1.000
    Si930    Si       0.22947    0.64002    0.82375    1.000
    N931     N        0.23164    0.62101    0.86199    1.000
    Si932    Si       0.15427    0.65250    0.82568    1.000
    N933     N        0.15852    0.65359    0.86869    1.000
    N934     N        0.00112    0.63259    0.90783    1.000
    N935     N        0.01643    0.63285    0.97400    1.000
    N936     N        0.08816    0.62789    0.98449    1.000
    Si937    Si       0.05616    0.63160    0.95315    1.000
    N938     N        0.21811    0.62730    0.97738    1.000
    N939     N        0.14923    0.63818    0.94020    1.000
    Si940    Si       0.12566    0.64876    0.97477    1.000
    Si941    Si       0.99953    0.67692    0.03166    1.000
    N942     N        0.03141    0.70681    0.03493    1.000
    N943     N        0.10781    0.67471    0.06734    1.000
    N944     N        0.00689    0.71250    0.10584    1.000
    N945     N        0.23710    0.66186    0.09806    1.000
    N946     N        0.22264    0.67560    0.02612    1.000
    N947     N        0.17213    0.67288    0.07626    1.000
    Si948    Si       0.19662    0.66503    0.11212    1.000
    Si949    Si       0.20591    0.71199    0.00750    1.000
    Si950    Si       0.01724    0.67515    0.12552    1.000
    N951     N        0.08107    0.68152    0.19597    1.000
    Si952    Si       0.04709    0.70458    0.18656    1.000
    N953     N        0.01970    0.67710    0.16933    1.000
    N954     N        0.21112    0.66495    0.19987    1.000
    N955     N        0.19486    0.69928    0.13887    1.000
    Si956    Si       0.16828    0.65950    0.20396    1.000
    N957     N        0.16042    0.67132    0.24480    1.000
    N958     N        0.13876    0.68062    0.17923    1.000
    Si959    Si       0.22343    0.69670    0.17205    1.000
    Si960    Si       0.11504    0.71710    0.18937    1.000
    N961     N        0.06939    0.69794    0.32924    1.000
    N962     N        0.09193    0.67582    0.26646    1.000
    Si963    Si       0.08733    0.69267    0.37094    1.000
    Si964    Si       0.06629    0.66345    0.30237    1.000
    Si965    Si       0.99285    0.65598    0.32353    1.000
    N966     N        0.15699    0.70152    0.29808    1.000
    Si967    Si       0.13024    0.69617    0.26151    1.000
    Si968    Si       0.18547    0.67070    0.28170    1.000
    N969     N        0.22745    0.66906    0.26649    1.000
    N970     N        0.13042    0.68303    0.36518    1.000
    Si971    Si       0.15336    0.71062    0.33991    1.000
    N972     N        0.19650    0.71202    0.34954    1.000
    Si973    Si       0.99269    0.70954    0.37532    1.000
    N974     N        0.00699    0.68313    0.40635    1.000
    Si975    Si       0.01697    0.70309    0.44380    1.000
    N976     N        0.03786    0.67347    0.46770    1.000
    N977     N        0.06798    0.65621    0.38369    1.000
    N978     N        0.11846    0.71008    0.46221    1.000
    Si979    Si       0.15661    0.69105    0.45127    1.000
    Si980    Si       0.20601    0.68935    0.38522    1.000
    N981     N        0.18580    0.70382    0.42100    1.000
    N982     N        0.18380    0.69562    0.48431    1.000
    N983     N        0.03714    0.69677    0.53730    1.000
    Si984    Si       0.05985    0.68852    0.57307    1.000
    Si985    Si       0.02567    0.66749    0.50915    1.000
    N986     N        0.03247    0.70053    0.60323    1.000
    Si987    Si       0.99127    0.69191    0.59166    1.000
    N988     N        0.13321    0.68965    0.53103    1.000
    Si989    Si       0.17769    0.69495    0.52783    1.000
    N990     N        0.18993    0.70475    0.61209    1.000
    Si991    Si       0.18088    0.66581    0.59401    1.000
    N992     N        0.19619    0.66515    0.55281    1.000
    N993     N        0.03578    0.70551    0.66903    1.000
    N994     N        0.04774    0.69093    0.74013    1.000
    Si995    Si       0.99189    0.69938    0.66879    1.000
    N996     N        0.11468    0.70732    0.63568    1.000
    N997     N        0.21964    0.67694    0.67131    1.000
    Si998    Si       0.12661    0.66494    0.63585    1.000
    Si999    Si       0.19956    0.71372    0.65187    1.000
    N1000    N        0.06002    0.67895    0.80765    1.000
    Si1001   Si       0.02920    0.66963    0.83708    1.000
    Si1002   Si       0.05208    0.70988    0.77834    1.000
    N1003    N        0.03213    0.69188    0.87283    1.000
    N1004    N        0.16324    0.68970    0.80367    1.000
    Si1005   Si       0.17389    0.69207    0.76028    1.000
    N1006    N        0.21377    0.71211    0.75914    1.000
    Si1007   Si       0.07932    0.70251    0.94208    1.000
    Si1008   Si       0.01906    0.67194    0.90814    1.000
    N1009    N        0.05362    0.67079    0.93454    1.000
    N1010    N        0.11785    0.69015    0.96241    1.000
    N1011    N        0.99064    0.69646    0.92964    1.000
    Si1012   Si       0.15328    0.71575    0.95292    1.000
    N1013    N        0.21119    0.66465    0.91368    1.000
    Si1014   Si       0.22021    0.66884    0.95617    1.000
    Si1015   Si       0.16829    0.66541    0.90829    1.000
    N1016    N        0.19184    0.70053    0.96652    1.000
    N1017    N        0.15578    0.70782    0.91047    1.000
    N1018    N        0.09554    0.73294    0.02999    1.000
    Si1019   Si       0.05537    0.73328    0.00798    1.000
    N1020    N        0.07127    0.73166    0.09677    1.000
    N1021    N        0.01417    0.76515    0.07200    1.000
    Si1022   Si       0.03206    0.72620    0.07341    1.000
    Si1023   Si       0.99319    0.75347    0.10970    1.000
    Si1024   Si       0.10576    0.71931    0.07184    1.000
    Si1025   Si       0.17554    0.71428    0.06549    1.000
    Si1026   Si       0.23197    0.75075    0.10478    1.000
    N1027    N        0.16725    0.72509    0.02482    1.000
    Si1028   Si       0.13320    0.75160    0.01381    1.000
    N1029    N        0.21720    0.72413    0.07144    1.000
    N1030    N        0.14370    0.73122    0.09225    1.000
    N1031    N        0.19430    0.76300    0.12392    1.000
    N1032    N        0.07492    0.73338    0.16891    1.000
    Si1033   Si       0.06624    0.75478    0.13271    1.000
    N1034    N        0.02443    0.76615    0.13733    1.000
    N1035    N        0.02510    0.72048    0.21997    1.000
    N1036    N        0.12799    0.72760    0.23124    1.000
    Si1037   Si       0.13385    0.76965    0.23777    1.000
    N1038    N        0.13858    0.74397    0.16236    1.000
    Si1039   Si       0.16388    0.73207    0.13113    1.000
    N1040    N        0.02332    0.74085    0.29571    1.000
    Si1041   Si       0.04832    0.73660    0.32918    1.000
    Si1042   Si       0.10787    0.76564    0.36187    1.000
    N1043    N        0.02587    0.73443    0.36670    1.000
    N1044    N        0.07769    0.76916    0.32831    1.000
    N1045    N        0.14400    0.75176    0.34434    1.000
    Si1046   Si       0.21963    0.73758    0.32326    1.000
    N1047    N        0.19614    0.76485    0.29921    1.000
    N1048    N        0.08841    0.73436    0.38519    1.000
    N1049    N        0.04749    0.73157    0.43543    1.000
    Si1050   Si       0.08408    0.73773    0.45842    1.000
    Si1051   Si       0.04878    0.75325    0.39734    1.000
    N1052    N        0.22851    0.75610    0.41867    1.000
    Si1053   Si       0.21163    0.72810    0.45191    1.000
    N1054    N        0.21683    0.75846    0.48573    1.000
    Si1055   Si       0.05399    0.73698    0.53776    1.000
    Si1056   Si       0.10665    0.73594    0.60303    1.000
    N1057    N        0.08625    0.72428    0.56653    1.000
    N1058    N        0.02469    0.76842    0.55103    1.000
    N1059    N        0.07921    0.73968    0.50289    1.000
    Si1060   Si       0.11773    0.72139    0.50736    1.000
    Si1061   Si       0.18202    0.73983    0.58791    1.000
    N1062    N        0.14511    0.75583    0.60065    1.000
    N1063    N        0.18554    0.73253    0.54648    1.000
    Si1064   Si       0.18407    0.76132    0.51326    1.000
    N1065    N        0.14388    0.75604    0.49938    1.000
    N1066    N        0.07208    0.75742    0.61895    1.000
    N1067    N        0.09602    0.72636    0.70589    1.000
    Si1068   Si       0.00018    0.76435    0.69058    1.000
    N1069    N        0.03571    0.75712    0.71796    1.000
    Si1070   Si       0.04152    0.73062    0.63451    1.000
    N1071    N        0.01499    0.76477    0.64913    1.000
    Si1072   Si       0.05278    0.71834    0.70572    1.000
    Si1073   Si       0.11180    0.74114    0.74568    1.000
    Si1074   Si       0.17821    0.74494    0.71504    1.000
    N1075    N        0.23142    0.74493    0.65422    1.000
    N1076    N        0.21793    0.76049    0.71591    1.000
    N1077    N        0.16735    0.72761    0.67747    1.000
    N1078    N        0.15069    0.72200    0.74118    1.000
    Si1079   Si       0.12224    0.73294    0.67284    1.000
    N1080    N        0.11210    0.77518    0.66775    1.000
    N1081    N        0.05539    0.75141    0.83926    1.000
    N1082    N        0.08929    0.73138    0.78029    1.000
    N1083    N        0.01423    0.73044    0.79131    1.000
    Si1084   Si       0.09462    0.74875    0.82037    1.000
    Si1085   Si       0.02597    0.76740    0.81107    1.000
    N1086    N        0.12337    0.72904    0.84441    1.000
    N1087    N        0.19022    0.74950    0.85203    1.000
    N1088    N        0.15890    0.76010    0.79444    1.000
    Si1089   Si       0.23121    0.75605    0.75828    1.000
    Si1090   Si       0.16133    0.72926    0.82188    1.000
    Si1091   Si       0.23198    0.75833    0.84298    1.000
    Si1092   Si       0.05331    0.72989    0.87720    1.000
    N1093    N        0.06148    0.73424    0.96578    1.000
    N1094    N        0.02893    0.74964    0.90759    1.000
    N1095    N        0.08732    0.72314    0.90429    1.000
    Si1096   Si       0.99036    0.74056    0.92588    1.000
    N1097    N        0.13939    0.76911    0.90004    1.000
    Si1098   Si       0.12527    0.73073    0.88778    1.000
    N1099    N        0.14058    0.75390    0.97077    1.000
    N1100    N        0.23858    0.74000    0.00090    1.000
    N1101    N        0.07462    0.80589    0.06837    1.000
    Si1102   Si       0.03545    0.79547    0.05058    1.000
    Si1103   Si       0.07307    0.82017    0.11148    1.000
    Si1104   Si       0.11142    0.82441    0.05275    1.000
    N1105    N        0.03410    0.77245    0.01160    1.000
    Si1106   Si       0.24170    0.78173    0.01212    1.000
    N1107    N        0.20702    0.79537    0.03435    1.000
    Si1108   Si       0.16913    0.81542    0.03511    1.000
    N1109    N        0.13278    0.79224    0.02938    1.000
    N1110    N        0.15216    0.83363    0.07141    1.000
    N1111    N        0.21042    0.83135    0.11308    1.000
    N1112    N        0.03521    0.83211    0.12850    1.000
    Si1113   Si       0.99878    0.80849    0.21629    1.000
    N1114    N        0.09395    0.78915    0.13259    1.000
    Si1115   Si       0.07157    0.80682    0.22302    1.000
    N1116    N        0.03790    0.79962    0.19576    1.000
    Si1117   Si       0.01659    0.80285    0.15781    1.000
    N1118    N        0.10973    0.78971    0.20600    1.000
    N1119    N        0.99307    0.77410    0.24357    1.000
    Si1120   Si       0.18003    0.81494    0.19795    1.000
    N1121    N        0.17309    0.78701    0.23092    1.000
    Si1122   Si       0.19454    0.80220    0.14023    1.000
    N1123    N        0.15445    0.81663    0.15941    1.000
    N1124    N        0.21582    0.80021    0.17905    1.000
    Si1125   Si       0.12364    0.78504    0.16513    1.000
    Si1126   Si       0.08898    0.79426    0.29409    1.000
    N1127    N        0.06063    0.79155    0.26159    1.000
    N1128    N        0.00015    0.81227    0.30109    1.000
    Si1129   Si       0.02060    0.78038    0.27698    1.000
    N1130    N        0.16704    0.82091    0.32270    1.000
    Si1131   Si       0.20567    0.78429    0.26019    1.000
    N1132    N        0.12653    0.77924    0.28039    1.000
    Si1133   Si       0.15843    0.77821    0.31179    1.000
    N1134    N        0.21390    0.82862    0.26568    1.000
    Si1135   Si       0.19787    0.83593    0.35001    1.000
    Si1136   Si       0.02114    0.82534    0.37696    1.000
    N1137    N        0.04520    0.79717    0.40130    1.000
    Si1138   Si       0.08309    0.80677    0.41792    1.000
    N1139    N        0.09795    0.77662    0.44688    1.000
    N1140    N        0.11238    0.80202    0.38536    1.000
    Si1141   Si       0.14386    0.83317    0.38280    1.000
    Si1142   Si       0.13557    0.78496    0.46636    1.000
    N1143    N        0.22253    0.82858    0.43144    1.000
    N1144    N        0.16845    0.78060    0.44121    1.000
    N1145    N        0.13918    0.82894    0.48062    1.000
    Si1146   Si       0.20174    0.79146    0.41786    1.000
    N1147    N        0.18188    0.80991    0.38272    1.000
    N1148    N        0.00305    0.81460    0.59825    1.000
    Si1149   Si       0.02635    0.81261    0.56060    1.000
    N1150    N        0.06475    0.82873    0.56609    1.000
    N1151    N        0.99833    0.83197    0.53366    1.000
    N1152    N        0.11860    0.81486    0.61069    1.000
    N1153    N        0.18043    0.80101    0.53163    1.000
    Si1154   Si       0.20266    0.80971    0.56908    1.000
    Si1155   Si       0.16024    0.79471    0.61462    1.000
    N1156    N        0.20476    0.77728    0.59854    1.000
    N1157    N        0.17438    0.83526    0.59144    1.000
    N1158    N        0.03723    0.82720    0.72014    1.000
    Si1159   Si       0.09024    0.79317    0.63584    1.000
    Si1160   Si       0.01930    0.80859    0.63767    1.000
    Si1161   Si       0.05553    0.79111    0.73843    1.000
    N1162    N        0.05840    0.81679    0.65302    1.000
    N1163    N        0.09800    0.78510    0.74192    1.000
    Si1164   Si       0.18976    0.81143    0.74179    1.000
    N1165    N        0.17021    0.80322    0.65729    1.000
    N1166    N        0.23700    0.81720    0.64364    1.000
    Si1167   Si       0.11959    0.82362    0.74610    1.000
    N1168    N        0.15942    0.78510    0.72162    1.000
    Si1169   Si       0.13784    0.80414    0.68686    1.000
    Si1170   Si       0.24008    0.77649    0.62627    1.000
    Si1171   Si       0.20277    0.82994    0.66820    1.000
    N1172    N        0.03883    0.79959    0.77920    1.000
    N1173    N        0.10284    0.79227    0.81213    1.000
    Si1174   Si       0.07219    0.82092    0.80163    1.000
    N1175    N        0.99587    0.78917    0.83196    1.000
    N1176    N        0.15762    0.81378    0.84519    1.000
    Si1177   Si       0.14658    0.79933    0.80716    1.000
    N1178    N        0.21925    0.79592    0.77005    1.000
    N1179    N        0.23396    0.80371    0.84089    1.000
    Si1180   Si       0.23530    0.82130    0.80106    1.000
    N1181    N        0.15545    0.82524    0.77188    1.000
    Si1182   Si       0.99916    0.78594    0.98515    1.000
    N1183    N        0.02238    0.80228    0.95098    1.000
    N1184    N        0.08518    0.79612    0.93602    1.000
    N1185    N        0.02344    0.83246    0.88355    1.000
    Si1186   Si       0.05210    0.76900    0.93954    1.000
    N1187    N        0.24023    0.81141    0.97729    1.000
    Si1188   Si       0.17240    0.78296    0.87376    1.000
    Si1189   Si       0.23703    0.82301    0.87972    1.000
    N1190    N        0.14329    0.82226    0.94141    1.000
    N1191    N        0.20026    0.80512    0.89685    1.000
    Si1192   Si       0.12707    0.78178    0.93861    1.000
    N1193    N        0.11058    0.86142    0.03159    1.000
    N1194    N        0.00368    0.88393    0.08562    1.000
    N1195    N        0.01550    0.83119    0.04294    1.000
    N1196    N        0.09884    0.85395    0.12099    1.000
    Si1197   Si       0.18046    0.85662    0.09343    1.000
    N1198    N        0.19910    0.88792    0.06644    1.000
    N1199    N        0.17686    0.84618    0.00407    1.000
    Si1200   Si       0.23787    0.89558    0.08420    1.000
    Si1201   Si       0.01347    0.87087    0.12610    1.000
    N1202    N        0.99923    0.84584    0.23544    1.000
    N1203    N        0.07286    0.84872    0.22975    1.000
    Si1204   Si       0.03612    0.86908    0.24200    1.000
    Si1205   Si       0.08596    0.88622    0.21209    1.000
    N1206    N        0.11111    0.87414    0.18107    1.000
    Si1207   Si       0.13354    0.85603    0.14957    1.000
    N1208    N        0.16470    0.87785    0.12819    1.000
    N1209    N        0.18056    0.85578    0.21140    1.000
    Si1210   Si       0.20430    0.89274    0.20136    1.000
    Si1211   Si       0.07245    0.86580    0.31683    1.000
    Si1212   Si       0.01096    0.85305    0.30997    1.000
    N1213    N        0.04206    0.87579    0.28446    1.000
    N1214    N        0.03897    0.84711    0.34237    1.000
    N1215    N        0.09909    0.83398    0.30415    1.000
    N1216    N        0.13257    0.86429    0.35632    1.000
    Si1217   Si       0.13793    0.85106    0.31333    1.000
    N1218    N        0.15295    0.87243    0.27866    1.000
    Si1219   Si       0.18770    0.86288    0.25523    1.000
    N1220    N        0.23926    0.84011    0.33154    1.000
    N1221    N        0.00781    0.85743    0.40424    1.000
    Si1222   Si       0.04837    0.85539    0.46435    1.000
    N1223    N        0.08147    0.84295    0.44120    1.000
    N1224    N        0.01060    0.83530    0.46837    1.000
    N1225    N        0.19895    0.89276    0.44993    1.000
    Si1226   Si       0.12114    0.85966    0.45267    1.000
    Si1227   Si       0.19357    0.85988    0.41897    1.000
    N1228    N        0.19919    0.87108    0.37778    1.000
    N1229    N        0.15070    0.85171    0.42064    1.000
    Si1230   Si       0.08597    0.85929    0.54196    1.000
    N1231    N        0.06716    0.86262    0.50346    1.000
    Si1232   Si       0.23596    0.84468    0.52008    1.000
    Si1233   Si       0.13071    0.84794    0.58639    1.000
    N1234    N        0.19620    0.86245    0.51699    1.000
    Si1235   Si       0.17935    0.87405    0.60987    1.000
    N1236    N        0.13680    0.88604    0.60651    1.000
    N1237    N        0.12923    0.84899    0.54360    1.000
    Si1238   Si       0.16021    0.83587    0.51609    1.000
    N1239    N        0.07013    0.88120    0.67628    1.000
    N1240    N        0.00541    0.84779    0.66003    1.000
    Si1241   Si       0.10720    0.88350    0.69943    1.000
    Si1242   Si       0.04423    0.84571    0.68134    1.000
    Si1243   Si       0.99529    0.89144    0.65412    1.000
    N1244    N        0.21011    0.83590    0.71023    1.000
    N1245    N        0.19035    0.86844    0.65216    1.000
    Si1246   Si       0.23651    0.87058    0.71159    1.000
    N1247    N        0.12345    0.84166    0.70616    1.000
    N1248    N        0.05802    0.84753    0.83149    1.000
    N1249    N        0.02970    0.87588    0.77266    1.000
    N1250    N        0.08755    0.84451    0.76716    1.000
    Si1251   Si       0.07336    0.88591    0.76429    1.000
    Si1252   Si       0.01712    0.83438    0.76109    1.000
    Si1253   Si       0.04798    0.89014    0.82554    1.000
    Si1254   Si       0.14097    0.85151    0.86145    1.000
    N1255    N        0.21225    0.85723    0.79472    1.000
    Si1256   Si       0.16794    0.86239    0.79162    1.000
    N1257    N        0.14349    0.87607    0.82548    1.000
    Si1258   Si       0.06153    0.85486    0.87877    1.000
    N1259    N        0.05995    0.85950    0.92573    1.000
    N1260    N        0.10654    0.87021    0.96270    1.000
    N1261    N        0.10396    0.84643    0.88388    1.000
    Si1262   Si       0.10200    0.83802    0.92954    1.000
    Si1263   Si       0.01955    0.83904    0.92723    1.000
    Si1264   Si       0.07051    0.89212    0.95410    1.000
    Si1265   Si       0.13737    0.86658    0.99430    1.000
    Si1266   Si       0.21816    0.84917    0.98249    1.000
    N1267    N        0.16823    0.86501    0.89170    1.000
    Si1268   Si       0.17853    0.83516    0.91973    1.000
    N1269    N        0.23253    0.86881    0.88138    1.000
    N1270    N        0.20526    0.86149    0.94327    1.000
    N1271    N        0.24284    0.88188    0.99721    1.000
    Si1272   Si       0.02864    0.91916    0.07782    1.000
    N1273    N        0.02405    0.93008    0.03707    1.000
    N1274    N        0.09074    0.93562    0.02339    1.000
    N1275    N        0.07068    0.90573    0.08186    1.000
    Si1276   Si       0.10011    0.90117    0.04883    1.000
    Si1277   Si       0.00575    0.91172    0.00419    1.000
    Si1278   Si       0.08503    0.89521    0.12045    1.000
    N1279    N        0.20586    0.93438    0.02222    1.000
    N1280    N        0.13982    0.91743    0.06192    1.000
    Si1281   Si       0.17451    0.90969    0.03688    1.000
    Si1282   Si       0.13569    0.94222    0.09855    1.000
    N1283    N        0.17872    0.94716    0.11121    1.000
    N1284    N        0.15091    0.90664    0.00011    1.000
    Si1285   Si       0.12719    0.94360    0.00189    1.000
    N1286    N        0.99744    0.93290    0.16924    1.000
    N1287    N        0.04193    0.90170    0.21356    1.000
    Si1288   Si       0.00729    0.93146    0.22789    1.000
    Si1289   Si       0.03828    0.92019    0.17459    1.000
    N1290    N        0.10699    0.91198    0.23962    1.000
    N1291    N        0.11216    0.92837    0.13064    1.000
    N1292    N        0.04576    0.89644    0.14047    1.000
    N1293    N        0.18934    0.92355    0.17635    1.000
    Si1294   Si       0.19035    0.91170    0.13569    1.000
    N1295    N        0.23096    0.89866    0.12680    1.000
    Si1296   Si       0.12280    0.95241    0.23502    1.000
    N1297    N        0.20517    0.90149    0.24386    1.000
    N1298    N        0.00575    0.94055    0.27114    1.000
    N1299    N        0.09955    0.90201    0.31461    1.000
    Si1300   Si       0.20788    0.94319    0.25622    1.000
    Si1301   Si       0.12352    0.90758    0.35052    1.000
    Si1302   Si       0.12540    0.90765    0.27878    1.000
    N1303    N        0.16167    0.92476    0.33560    1.000
    Si1304   Si       0.19398    0.91212    0.36292    1.000
    N1305    N        0.23444    0.91403    0.34250    1.000
    N1306    N        0.14149    0.94926    0.27499    1.000
    N1307    N        0.03568    0.92572    0.39239    1.000
    Si1308   Si       0.04310    0.93104    0.48028    1.000
    Si1309   Si       0.01356    0.89997    0.41717    1.000
    N1310    N        0.11054    0.93302    0.38330    1.000
    N1311    N        0.03858    0.89773    0.45338    1.000
    N1312    N        0.08387    0.94027    0.49451    1.000
    Si1313   Si       0.20816    0.92986    0.43189    1.000
    N1314    N        0.12124    0.90317    0.44951    1.000
    Si1315   Si       0.19169    0.89991    0.49397    1.000
    Si1316   Si       0.12520    0.93799    0.47967    1.000
    N1317    N        0.17818    0.93030    0.40009    1.000
    Si1318   Si       0.13680    0.92783    0.41778    1.000
    N1319    N        0.02931    0.92711    0.52462    1.000
    Si1320   Si       0.07000    0.93142    0.53679    1.000
    N1321    N        0.08504    0.89798    0.56125    1.000
    N1322    N        0.08441    0.93432    0.62014    1.000
    Si1323   Si       0.00048    0.95041    0.61189    1.000
    Si1324   Si       0.11207    0.91893    0.58999    1.000
    N1325    N        0.20470    0.90758    0.60006    1.000
    N1326    N        0.15612    0.92169    0.50679    1.000
    N1327    N        0.22491    0.92366    0.50554    1.000
    N1328    N        0.14987    0.94274    0.57839    1.000
    Si1329   Si       0.18160    0.94303    0.60889    1.000
    N1330    N        0.09954    0.90400    0.73613    1.000
    N1331    N        0.02209    0.91787    0.63455    1.000
    Si1332   Si       0.06134    0.91971    0.65382    1.000
    Si1333   Si       0.01774    0.93951    0.70944    1.000
    N1334    N        0.00059    0.90141    0.69686    1.000
    N1335    N        0.05342    0.94565    0.68705    1.000
    N1336    N        0.15897    0.94895    0.72756    1.000
    N1337    N        0.13903    0.90663    0.68402    1.000
    N1338    N        0.20874    0.90471    0.70682    1.000
    N1339    N        0.17590    0.94460    0.65289    1.000
    Si1340   Si       0.18259    0.90624    0.67188    1.000
    Si1341   Si       0.19062    0.92280    0.74112    1.000
    N1342    N        0.01438    0.91963    0.82086    1.000
    Si1343   Si       0.00668    0.91248    0.77626    1.000
    N1344    N        0.08257    0.90580    0.80256    1.000
    N1345    N        0.02369    0.94330    0.75250    1.000
    N1346    N        0.05605    0.89720    0.86727    1.000
    N1347    N        0.11778    0.92937    0.86399    1.000
    Si1348   Si       0.12030    0.91328    0.82369    1.000
    N1349    N        0.13843    0.94135    0.79673    1.000
    N1350    N        0.22202    0.92848    0.77139    1.000
    Si1351   Si       0.13277    0.92390    0.75700    1.000
    N1352    N        0.16418    0.89316    0.75918    1.000
    Si1353   Si       0.24045    0.88970    0.78286    1.000
    Si1354   Si       0.07856    0.92820    0.88629    1.000
    N1355    N        0.07615    0.92933    0.92967    1.000
    N1356    N        0.03552    0.89559    0.97909    1.000
    N1357    N        0.18229    0.93331    0.90304    1.000
    N1358    N        0.23431    0.91890    0.93363    1.000
    Si1359   Si       0.20410    0.89153    0.90787    1.000
    N1360    N        0.05070    0.99292    0.04532    1.000
    Si1361   Si       0.02960    0.99492    0.08460    1.000
    Si1362   Si       0.05451    0.95640    0.02084    1.000
    N1363    N        0.02359    0.95520    0.10227    1.000
    N1364    N        0.12522    0.98341    0.08585    1.000
    N1365    N        0.15186    0.97639    0.02126    1.000
    Si1366   Si       0.15380    0.99835    0.05843    1.000
    Si1367   Si       0.19605    0.98533    0.11538    1.000
    N1368    N        0.21715    0.00198    0.00454    1.000
    Si1369   Si       0.19154    0.96862    0.00186    1.000
    N1370    N        0.19223    0.00631    0.07483    1.000
    N1371    N        0.24011    0.98147    0.11645    1.000
    N1372    N        0.10090    0.99958    0.14799    1.000
    Si1373   Si       0.06136    0.98305    0.20765    1.000
    N1374    N        0.02076    0.97507    0.22117    1.000
    Si1375   Si       0.00163    0.96264    0.13887    1.000
    N1376    N        0.01705    0.99894    0.15434    1.000
    Si1377   Si       0.10691    0.95879    0.16094    1.000
    Si1378   Si       0.00156    0.00653    0.19381    1.000
    N1379    N        0.09148    0.98219    0.23964    1.000
    N1380    N        0.06879    0.95093    0.17861    1.000
    N1381    N        0.18395    0.99709    0.15661    1.000
    N1382    N        0.20256    0.97032    0.22352    1.000
    N1383    N        0.13577    0.96110    0.19404    1.000
    Si1384   Si       0.17974    0.96416    0.18682    1.000
    Si1385   Si       0.23210    0.00206    0.21994    1.000
    N1386    N        0.05273    0.97403    0.35315    1.000
    Si1387   Si       0.00883    0.98293    0.26313    1.000
    Si1388   Si       0.01401    0.95412    0.36647    1.000
    N1389    N        0.04175    0.00498    0.28154    1.000
    Si1390   Si       0.05586    0.00689    0.32282    1.000
    N1391    N        0.09620    0.01063    0.30855    1.000
    N1392    N        0.22775    0.97862    0.36061    1.000
    Si1393   Si       0.16430    0.96091    0.31130    1.000
    N1394    N        0.16165    0.00107    0.33005    1.000
    N1395    N        0.20555    0.95799    0.29621    1.000
    Si1396   Si       0.23710    0.95503    0.32629    1.000
    Si1397   Si       0.19597    0.00785    0.35653    1.000
    N1398    N        0.00369    0.98220    0.39751    1.000
    N1399    N        0.07188    0.98122    0.42235    1.000
    Si1400   Si       0.10230    0.99649    0.44781    1.000
    N1401    N        0.01649    0.96122    0.46236    1.000
    Si1402   Si       0.03066    0.98950    0.43101    1.000
    Si1403   Si       0.07247    0.95221    0.38774    1.000
    N1404    N        0.19595    0.96094    0.45949    1.000
    Si1405   Si       0.21578    0.96686    0.49764    1.000
    N1406    N        0.17256    0.00484    0.39444    1.000
    Si1407   Si       0.16964    0.99403    0.43745    1.000
    N1408    N        0.13372    0.96480    0.44369    1.000
    N1409    N        0.02957    0.97830    0.59119    1.000
    Si1410   Si       0.07259    0.97282    0.59989    1.000
    Si1411   Si       0.08817    0.99346    0.52669    1.000
    Si1412   Si       0.01458    0.99955    0.55539    1.000
    N1413    N        0.08441    0.96406    0.55948    1.000
    N1414    N        0.04252    0.00142    0.52254    1.000
    N1415    N        0.09677    0.00513    0.61535    1.000
    Si1416   Si       0.20381    0.00462    0.56871    1.000
    N1417    N        0.20211    0.98049    0.60341    1.000
    N1418    N        0.13166    0.98446    0.51773    1.000
    N1419    N        0.19743    0.97573    0.53464    1.000
    Si1420   Si       0.15837    0.95456    0.53634    1.000
    N1421    N        0.10955    0.97984    0.68330    1.000
    Si1422   Si       0.06628    0.98567    0.69454    1.000
    Si1423   Si       0.99554    0.00118    0.66813    1.000
    N1424    N        0.06586    0.99870    0.73655    1.000
    N1425    N        0.03995    0.01079    0.66901    1.000
    Si1426   Si       0.14294    0.95223    0.68525    1.000
    N1427    N        0.05018    0.98228    0.80778    1.000
    Si1428   Si       0.03592    0.98431    0.76729    1.000
    Si1429   Si       0.03131    0.95807    0.83902    1.000
    N1430    N        0.99458    0.97197    0.86007    1.000
    Si1431   Si       0.15713    0.98208    0.80406    1.000
    N1432    N        0.19877    0.98927    0.79145    1.000
    N1433    N        0.17165    0.98049    0.84739    1.000
    Si1434   Si       0.22067    0.97963    0.84022    1.000
    Si1435   Si       0.23523    0.96841    0.77495    1.000
    N1436    N        0.12849    0.00638    0.78045    1.000
    N1437    N        0.05928    0.96806    0.87558    1.000
    Si1438   Si       0.99979    0.97222    0.96398    1.000
    Si1439   Si       0.07647    0.96477    0.95407    1.000
    N1440    N        0.04268    0.96784    0.97986    1.000
    Si1441   Si       0.03349    0.98611    0.90649    1.000
    N1442    N        0.00382    0.95958    0.92249    1.000
    Si1443   Si       0.09051    0.99803    0.89287    1.000
    N1444    N        0.06901    0.00019    0.92980    1.000
    N1445    N        0.11612    0.97073    0.97022    1.000
    N1446    N        0.18799    0.96873    0.95944    1.000
    Si1447   Si       0.21385    0.95687    0.92259    1.000
    N1448    N        0.23780    0.96753    0.87758    1.000
    Si1449   Si       0.15451    0.98931    0.93846    1.000
    N1450    N        0.12978    0.98217    0.90259    1.000
    Si1451   Si       0.15244    0.95374    0.87677    1.000
    N1452    N        0.31992    0.03942    0.06894    1.000
    Si1453   Si       0.31850    0.01411    0.10476    1.000
    Si1454   Si       0.30171    0.01585    0.03446    1.000
    N1455    N        0.29397    0.04113    0.00051    1.000
    N1456    N        0.36256    0.03340    0.00784    1.000
    N1457    N        0.40646    0.04338    0.10501    1.000
    N1458    N        0.42292    0.03463    0.03768    1.000
    Si1459   Si       0.46279    0.02354    0.03691    1.000
    Si1460   Si       0.39285    0.06229    0.02169    1.000
    Si1461   Si       0.48721    0.03872    0.09346    1.000
    N1462    N        0.28819    0.03354    0.13183    1.000
    Si1463   Si       0.34907    0.03911    0.22437    1.000
    N1464    N        0.31780    0.02264    0.20043    1.000
    Si1465   Si       0.33083    0.04163    0.16418    1.000
    N1466    N        0.35044    0.01661    0.13383    1.000
    Si1467   Si       0.25258    0.01216    0.14639    1.000
    N1468    N        0.42051    0.06207    0.23376    1.000
    N1469    N        0.42267    0.01975    0.17124    1.000
    Si1470   Si       0.39447    0.01680    0.13730    1.000
    Si1471   Si       0.41121    0.05444    0.19164    1.000
    N1472    N        0.36876    0.05209    0.18408    1.000
    N1473    N        0.47341    0.00776    0.21343    1.000
    N1474    N        0.27413    0.05509    0.30654    1.000
    Si1475   Si       0.31808    0.04740    0.31325    1.000
    N1476    N        0.31701    0.02237    0.27569    1.000
    Si1477   Si       0.27889    0.04066    0.26354    1.000
    N1478    N        0.31876    0.02302    0.34905    1.000
    N1479    N        0.35728    0.06702    0.30393    1.000
    Si1480   Si       0.46183    0.02495    0.31107    1.000
    Si1481   Si       0.39426    0.05635    0.32487    1.000
    N1482    N        0.42344    0.03965    0.29942    1.000
    N1483    N        0.38659    0.03223    0.36131    1.000
    Si1484   Si       0.41335    0.02841    0.25935    1.000
    N1485    N        0.48250    0.06623    0.31804    1.000
    N1486    N        0.45567    0.00792    0.34986    1.000
    N1487    N        0.26037    0.05591    0.45938    1.000
    Si1488   Si       0.34620    0.03642    0.38302    1.000
    N1489    N        0.31207    0.04297    0.41303    1.000
    Si1490   Si       0.23959    0.01749    0.45555    1.000
    Si1491   Si       0.27935    0.06824    0.42352    1.000
    N1492    N        0.37037    0.03806    0.43858    1.000
    Si1493   Si       0.41289    0.04308    0.42950    1.000
    N1494    N        0.43794    0.05394    0.46357    1.000
    Si1495   Si       0.34404    0.02969    0.52748    1.000
    N1496    N        0.29985    0.05564    0.57442    1.000
    Si1497   Si       0.28576    0.01544    0.56841    1.000
    Si1498   Si       0.30278    0.06338    0.61646    1.000
    N1499    N        0.24201    0.02415    0.56246    1.000
    N1500    N        0.37057    0.02178    0.56180    1.000
    Si1501   Si       0.37037    0.04367    0.59969    1.000
    N1502    N        0.42845    0.04034    0.53411    1.000
    Si1503   Si       0.47086    0.03907    0.56034    1.000
    N1504    N        0.48804    0.02611    0.51929    1.000
    Si1505   Si       0.45173    0.02862    0.49550    1.000
    N1506    N        0.33601    0.03790    0.62576    1.000
    N1507    N        0.26249    0.05327    0.71223    1.000
    Si1508   Si       0.36190    0.02037    0.73199    1.000
    Si1509   Si       0.25931    0.03121    0.67446    1.000
    N1510    N        0.26685    0.04777    0.63596    1.000
    N1511    N        0.36442    0.03513    0.69147    1.000
    Si1512   Si       0.47279    0.06090    0.73624    1.000
    N1513    N        0.40151    0.02610    0.62456    1.000
    Si1514   Si       0.37777    0.00936    0.65715    1.000
    Si1515   Si       0.35430    0.02695    0.82769    1.000
    N1516    N        0.33259    0.06426    0.82141    1.000
    Si1517   Si       0.24643    0.05001    0.86696    1.000
    N1518    N        0.36231    0.05855    0.75583    1.000
    N1519    N        0.34992    0.02333    0.87127    1.000
    N1520    N        0.23907    0.04792    0.77755    1.000
    Si1521   Si       0.42117    0.04678    0.84449    1.000
    N1522    N        0.39508    0.03273    0.81492    1.000
    N1523    N        0.45841    0.03251    0.82811    1.000
    Si1524   Si       0.42377    0.01862    0.77876    1.000
    N1525    N        0.43365    0.05546    0.75669    1.000
    N1526    N        0.27922    0.02801    0.88802    1.000
    Si1527   Si       0.31975    0.04240    0.89962    1.000
    N1528    N        0.32441    0.02670    0.93853    1.000
    Si1529   Si       0.33047    0.04596    0.97668    1.000
    Si1530   Si       0.25416    0.06031    0.99802    1.000
    N1531    N        0.43167    0.02397    0.94920    1.000
    N1532    N        0.41944    0.02456    0.88055    1.000
    Si1533   Si       0.42973    0.05043    0.91483    1.000
    N1534    N        0.47324    0.06171    0.90891    1.000
    N1535    N        0.48215    0.06128    0.98118    1.000
    Si1536   Si       0.47339    0.02115    0.96858    1.000
    N1537    N        0.32424    0.09532    0.10645    1.000
    N1538    N        0.30998    0.10691    0.03665    1.000
    Si1539   Si       0.33252    0.08145    0.06568    1.000
    Si1540   Si       0.33176    0.11726    0.99932    1.000
    N1541    N        0.25622    0.10081    0.12007    1.000
    N1542    N        0.37321    0.08617    0.05257    1.000
    N1543    N        0.40821    0.11283    0.11061    1.000
    Si1544   Si       0.39334    0.12145    0.06992    1.000
    N1545    N        0.46808    0.07086    0.11391    1.000
    Si1546   Si       0.30095    0.08934    0.21229    1.000
    N1547    N        0.33674    0.07728    0.23839    1.000
    Si1548   Si       0.29134    0.07668    0.13022    1.000
    N1549    N        0.30777    0.08041    0.17027    1.000
    N1550    N        0.26826    0.07189    0.23352    1.000
    N1551    N        0.42505    0.08658    0.16605    1.000
    Si1552   Si       0.42689    0.07870    0.12351    1.000
    Si1553   Si       0.44794    0.12308    0.17449    1.000
    Si1554   Si       0.45184    0.09157    0.24090    1.000
    Si1555   Si       0.34952    0.10042    0.27435    1.000
    N1556    N        0.29486    0.10579    0.35955    1.000
    N1557    N        0.31072    0.11895    0.28657    1.000
    Si1558   Si       0.25198    0.11566    0.37088    1.000
    N1559    N        0.24360    0.11684    0.32701    1.000
    N1560    N        0.41159    0.09438    0.33988    1.000
    Si1561   Si       0.45217    0.09839    0.32381    1.000
    N1562    N        0.46186    0.10819    0.28089    1.000
    Si1563   Si       0.38756    0.12787    0.32308    1.000
    N1564    N        0.37914    0.13048    0.28230    1.000
    N1565    N        0.24693    0.07909    0.39526    1.000
    N1566    N        0.35679    0.08101    0.39241    1.000
    N1567    N        0.30542    0.10313    0.42675    1.000
    Si1568   Si       0.32600    0.11331    0.38734    1.000
    Si1569   Si       0.34284    0.07206    0.43583    1.000
    Si1570   Si       0.24715    0.08938    0.48487    1.000
    N1571    N        0.36254    0.10416    0.46164    1.000
    N1572    N        0.42625    0.12594    0.46402    1.000
    Si1573   Si       0.39653    0.09728    0.38426    1.000
    Si1574   Si       0.44595    0.09258    0.44526    1.000
    N1575    N        0.49023    0.09841    0.44882    1.000
    N1576    N        0.42854    0.07791    0.40769    1.000
    Si1577   Si       0.30174    0.08144    0.54082    1.000
    N1578    N        0.26284    0.08144    0.52383    1.000
    N1579    N        0.33771    0.07200    0.51786    1.000
    N1580    N        0.30861    0.11924    0.56149    1.000
    Si1581   Si       0.27892    0.12089    0.59434    1.000
    N1582    N        0.24126    0.09798    0.59035    1.000
    Si1583   Si       0.36229    0.10528    0.50458    1.000
    N1584    N        0.45357    0.07697    0.57686    1.000
    N1585    N        0.40333    0.10636    0.52389    1.000
    Si1586   Si       0.45883    0.10696    0.60883    1.000
    N1587    N        0.38507    0.08362    0.58644    1.000
    Si1588   Si       0.41519    0.07845    0.55287    1.000
    Si1589   Si       0.39023    0.11155    0.61880    1.000
    N1590    N        0.29871    0.10479    0.62826    1.000
    Si1591   Si       0.32586    0.12104    0.65920    1.000
    N1592    N        0.32054    0.09632    0.69665    1.000
    Si1593   Si       0.28590    0.08847    0.72263    1.000
    Si1594   Si       0.35957    0.07757    0.68810    1.000
    N1595    N        0.36213    0.10230    0.64983    1.000
    N1596    N        0.26002    0.12190    0.71774    1.000
    Si1597   Si       0.43137    0.10381    0.68196    1.000
    N1598    N        0.42852    0.10578    0.63944    1.000
    N1599    N        0.46399    0.07826    0.69712    1.000
    N1600    N        0.39412    0.09794    0.70701    1.000
    Si1601   Si       0.39986    0.08313    0.75171    1.000
    Si1602   Si       0.30489    0.08791    0.84702    1.000
    N1603    N        0.29755    0.08419    0.76485    1.000
    Si1604   Si       0.33760    0.08172    0.78403    1.000
    Si1605   Si       0.26200    0.08113    0.79192    1.000
    N1606    N        0.36233    0.11926    0.86722    1.000
    N1607    N        0.26780    0.07105    0.83341    1.000
    N1608    N        0.24576    0.12255    0.79430    1.000
    N1609    N        0.36436    0.11362    0.79498    1.000
    N1610    N        0.30418    0.12969    0.82918    1.000
    Si1611   Si       0.47039    0.10118    0.84748    1.000
    N1612    N        0.42824    0.09079    0.85530    1.000
    N1613    N        0.41859    0.12260    0.76031    1.000
    N1614    N        0.47136    0.12285    0.80958    1.000
    N1615    N        0.31380    0.08424    0.89062    1.000
    N1616    N        0.34487    0.08597    0.97119    1.000
    Si1617   Si       0.33242    0.12242    0.90064    1.000
    N1618    N        0.25780    0.10238    0.99490    1.000
    N1619    N        0.44890    0.11737    0.94760    1.000
    N1620    N        0.47776    0.12664    0.88292    1.000
    Si1621   Si       0.45280    0.09327    0.98307    1.000
    Si1622   Si       0.48111    0.10356    0.92097    1.000
    N1623    N        0.40913    0.08725    0.99006    1.000
    N1624    N        0.39798    0.08151    0.91578    1.000
    Si1625   Si       0.40126    0.11126    0.88429    1.000
    Si1626   Si       0.38380    0.10056    0.95315    1.000
    N1627    N        0.29528    0.15933    0.10650    1.000
    Si1628   Si       0.25487    0.14111    0.10527    1.000
    Si1629   Si       0.33150    0.13857    0.11523    1.000
    N1630    N        0.25301    0.16284    0.01220    1.000
    N1631    N        0.35980    0.14599    0.08300    1.000
    Si1632   Si       0.27188    0.12711    0.02786    1.000
    N1633    N        0.24601    0.12676    0.06350    1.000
    N1634    N        0.36287    0.15174    0.99883    1.000
    N1635    N        0.48466    0.18517    0.04272    1.000
    Si1636   Si       0.46427    0.14365    0.04597    1.000
    Si1637   Si       0.40085    0.16761    0.01531    1.000
    N1638    N        0.42074    0.14313    0.04580    1.000
    N1639    N        0.39574    0.18755    0.11241    1.000
    N1640    N        0.46817    0.12411    0.00739    1.000
    N1641    N        0.48089    0.12736    0.08221    1.000
    Si1642   Si       0.37018    0.18701    0.07925    1.000
    Si1643   Si       0.33726    0.15861    0.19314    1.000
    N1644    N        0.35259    0.14717    0.15256    1.000
    N1645    N        0.30664    0.13230    0.21427    1.000
    N1646    N        0.37348    0.15911    0.21903    1.000
    Si1647   Si       0.39312    0.14797    0.13332    1.000
    Si1648   Si       0.41546    0.16121    0.20853    1.000
    N1649    N        0.42124    0.15809    0.16411    1.000
    N1650    N        0.44109    0.12623    0.21688    1.000
    N1651    N        0.28898    0.16669    0.32543    1.000
    N1652    N        0.25272    0.14858    0.26364    1.000
    Si1653   Si       0.25057    0.15503    0.30760    1.000
    Si1654   Si       0.29595    0.14327    0.25535    1.000
    N1655    N        0.32174    0.17885    0.26090    1.000
    N1656    N        0.35112    0.12968    0.34506    1.000
    Si1657   Si       0.31080    0.13023    0.32813    1.000
    Si1658   Si       0.36630    0.16958    0.26156    1.000
    N1659    N        0.40531    0.16293    0.34193    1.000
    Si1660   Si       0.44770    0.16359    0.35626    1.000
    N1661    N        0.47029    0.12964    0.34869    1.000
    Si1662   Si       0.36942    0.16239    0.37342    1.000
    N1663    N        0.25127    0.14377    0.40218    1.000
    N1664    N        0.33294    0.15519    0.40036    1.000
    N1665    N        0.29242    0.17632    0.45089    1.000
    Si1666   Si       0.27959    0.13772    0.43451    1.000
    Si1667   Si       0.26549    0.17221    0.48466    1.000
    N1668    N        0.25702    0.12918    0.47145    1.000
    N1669    N        0.37804    0.17847    0.45822    1.000
    N1670    N        0.39366    0.13606    0.40212    1.000
    N1671    N        0.46229    0.18355    0.39414    1.000
    Si1672   Si       0.38694    0.13711    0.44528    1.000
    N1673    N        0.26450    0.16147    0.59295    1.000
    Si1674   Si       0.31928    0.15701    0.54473    1.000
    N1675    N        0.34887    0.14874    0.51398    1.000
    N1676    N        0.27923    0.17070    0.52770    1.000
    Si1677   Si       0.35318    0.17926    0.61472    1.000
    Si1678   Si       0.24651    0.17636    0.55595    1.000
    N1679    N        0.45653    0.14579    0.58906    1.000
    N1680    N        0.39001    0.15627    0.60956    1.000
    Si1681   Si       0.42870    0.17669    0.60369    1.000
    N1682    N        0.41821    0.17510    0.51604    1.000
    Si1683   Si       0.48343    0.14237    0.55606    1.000
    Si1684   Si       0.43108    0.13440    0.50693    1.000
    Si1685   Si       0.37666    0.18181    0.50273    1.000
    N1686    N        0.48519    0.18521    0.54310    1.000
    N1687    N        0.47386    0.12866    0.51323    1.000
    Si1688   Si       0.24263    0.17771    0.62658    1.000
    N1689    N        0.32787    0.16410    0.64770    1.000
    N1690    N        0.26206    0.16635    0.66444    1.000
    N1691    N        0.38408    0.17502    0.69113    1.000
    N1692    N        0.44175    0.14241    0.70117    1.000
    Si1693   Si       0.40063    0.14160    0.71955    1.000
    Si1694   Si       0.48282    0.15241    0.70854    1.000
    Si1695   Si       0.27569    0.15678    0.81120    1.000
    N1696    N        0.27726    0.16989    0.76907    1.000
    Si1697   Si       0.24820    0.14039    0.75571    1.000
    Si1698   Si       0.34689    0.13444    0.82976    1.000
    N1699    N        0.36617    0.17138    0.82056    1.000
    N1700    N        0.42647    0.17269    0.79300    1.000
    Si1701   Si       0.39006    0.14792    0.78455    1.000
    Si1702   Si       0.45253    0.14276    0.77729    1.000
    N1703    N        0.48220    0.16003    0.75075    1.000
    N1704    N        0.37045    0.15908    0.74744    1.000
    N1705    N        0.30287    0.15218    0.90308    1.000
    Si1706   Si       0.34070    0.16327    0.96259    1.000
    Si1707   Si       0.26009    0.13804    0.96651    1.000
    N1708    N        0.30456    0.13935    0.97458    1.000
    N1709    N        0.25816    0.18073    0.95011    1.000
    N1710    N        0.36410    0.13781    0.93276    1.000
    Si1711   Si       0.45563    0.16305    0.88759    1.000
    Si1712   Si       0.46542    0.15492    0.96893    1.000
    N1713    N        0.46773    0.17493    0.92836    1.000
    N1714    N        0.43317    0.17949    0.98644    1.000
    N1715    N        0.41472    0.15291    0.89129    1.000
    Si1716   Si       0.38409    0.17213    0.91149    1.000
    Si1717   Si       0.29427    0.20272    0.09774    1.000
    N1718    N        0.26078    0.21357    0.06858    1.000
    N1719    N        0.33596    0.21150    0.09293    1.000
    Si1720   Si       0.27583    0.24130    0.03532    1.000
    N1721    N        0.31882    0.24478    0.03983    1.000
    N1722    N        0.38973    0.20120    0.04232    1.000
    Si1723   Si       0.40790    0.24031    0.03853    1.000
    Si1724   Si       0.48528    0.22613    0.05846    1.000
    N1725    N        0.44493    0.24197    0.06216    1.000
    N1726    N        0.32232    0.20054    0.19676    1.000
    Si1727   Si       0.30159    0.20852    0.23511    1.000
    N1728    N        0.25736    0.21412    0.23694    1.000
    N1729    N        0.28056    0.22803    0.13037    1.000
    Si1730   Si       0.35494    0.23014    0.18892    1.000
    N1731    N        0.44650    0.23147    0.13091    1.000
    Si1732   Si       0.41848    0.20272    0.14466    1.000
    N1733    N        0.43432    0.19843    0.22129    1.000
    Si1734   Si       0.47612    0.19028    0.23159    1.000
    Si1735   Si       0.41321    0.23520    0.21220    1.000
    N1736    N        0.39306    0.21707    0.17594    1.000
    N1737    N        0.35571    0.20040    0.35542    1.000
    Si1738   Si       0.31175    0.19680    0.34599    1.000
    N1739    N        0.30714    0.23299    0.32478    1.000
    N1740    N        0.24113    0.23673    0.35660    1.000
    Si1741   Si       0.41354    0.20009    0.31656    1.000
    N1742    N        0.41562    0.23860    0.33744    1.000
    N1743    N        0.38747    0.19874    0.28246    1.000
    Si1744   Si       0.38236    0.23251    0.36603    1.000
    N1745    N        0.45525    0.19014    0.32395    1.000
    N1746    N        0.29024    0.20181    0.38376    1.000
    N1747    N        0.34089    0.22583    0.42379    1.000
    Si1748   Si       0.25618    0.22503    0.39646    1.000
    Si1749   Si       0.31575    0.19034    0.41672    1.000
    Si1750   Si       0.44665    0.22071    0.41006    1.000
    N1751    N        0.45984    0.22794    0.45191    1.000
    Si1752   Si       0.37953    0.21559    0.43767    1.000
    N1753    N        0.40414    0.21986    0.40267    1.000
    N1754    N        0.39487    0.24285    0.46927    1.000
    Si1755   Si       0.34342    0.22690    0.55740    1.000
    N1756    N        0.35716    0.21661    0.51665    1.000
    N1757    N        0.33801    0.18538    0.57494    1.000
    N1758    N        0.42864    0.20937    0.57616    1.000
    Si1759   Si       0.44462    0.20392    0.53602    1.000
    N1760    N        0.45261    0.24371    0.51639    1.000
    N1761    N        0.31208    0.19153    0.71222    1.000
    N1762    N        0.29232    0.23057    0.65888    1.000
    N1763    N        0.25364    0.22798    0.72119    1.000
    Si1764   Si       0.35405    0.19022    0.72241    1.000
    Si1765   Si       0.29960    0.18864    0.67130    1.000
    N1766    N        0.36159    0.22679    0.74343    1.000
    N1767    N        0.49458    0.18971    0.68816    1.000
    Si1768   Si       0.39794    0.20234    0.66077    1.000
    N1769    N        0.40166    0.23944    0.68738    1.000
    N1770    N        0.43613    0.19431    0.64220    1.000
    N1771    N        0.36778    0.21745    0.63164    1.000
    Si1772   Si       0.47318    0.21384    0.65731    1.000
    Si1773   Si       0.28255    0.22096    0.85260    1.000
    N1774    N        0.32311    0.22386    0.83566    1.000
    N1775    N        0.30248    0.23597    0.76749    1.000
    Si1776   Si       0.36228    0.20856    0.84466    1.000
    N1777    N        0.25801    0.18904    0.83373    1.000
    Si1778   Si       0.28402    0.20334    0.74329    1.000
    N1779    N        0.46222    0.18913    0.85302    1.000
    N1780    N        0.40208    0.22785    0.83520    1.000
    Si1781   Si       0.43514    0.20247    0.82276    1.000
    N1782    N        0.45166    0.23589    0.79941    1.000
    Si1783   Si       0.49124    0.23706    0.78116    1.000
    N1784    N        0.32375    0.20051    0.94645    1.000
    N1785    N        0.27133    0.22052    0.89576    1.000
    Si1786   Si       0.35458    0.22662    0.92285    1.000
    Si1787   Si       0.28980    0.19028    0.92243    1.000
    N1788    N        0.36013    0.20121    0.88764    1.000
    N1789    N        0.25812    0.23522    0.99665    1.000
    Si1790   Si       0.42688    0.21781    0.96422    1.000
    N1791    N        0.39291    0.20519    0.94025    1.000
    N1792    N        0.46224    0.23872    0.95183    1.000
    Si1793   Si       0.49057    0.20708    0.94629    1.000
    N1794    N        0.32165    0.28040    0.10010    1.000
    N1795    N        0.26491    0.28008    0.05125    1.000
    Si1796   Si       0.33947    0.27773    0.01988    1.000
    Si1797   Si       0.34251    0.25234    0.07564    1.000
    Si1798   Si       0.29700    0.30232    0.07143    1.000
    N1799    N        0.37657    0.26842    0.05288    1.000
    Si1800   Si       0.44389    0.26255    0.09999    1.000
    N1801    N        0.48290    0.27888    0.11156    1.000
    N1802    N        0.41402    0.29545    0.10232    1.000
    Si1803   Si       0.40109    0.30502    0.05998    1.000
    N1804    N        0.41435    0.24548    0.99592    1.000
    N1805    N        0.27291    0.29183    0.15487    1.000
    Si1806   Si       0.30315    0.26223    0.13833    1.000
    N1807    N        0.33540    0.26343    0.16740    1.000
    N1808    N        0.25346    0.28250    0.22100    1.000
    Si1809   Si       0.34264    0.27592    0.24512    1.000
    Si1810   Si       0.23879    0.27626    0.17881    1.000
    N1811    N        0.30777    0.25092    0.24862    1.000
    Si1812   Si       0.48309    0.26327    0.20480    1.000
    N1813    N        0.37103    0.24894    0.22509    1.000
    Si1814   Si       0.41961    0.30645    0.21034    1.000
    N1815    N        0.44056    0.26976    0.20918    1.000
    Si1816   Si       0.33343    0.26907    0.32524    1.000
    N1817    N        0.25393    0.27262    0.29322    1.000
    Si1818   Si       0.27080    0.25679    0.33032    1.000
    N1819    N        0.30040    0.29261    0.34173    1.000
    N1820    N        0.35300    0.28502    0.28787    1.000
    N1821    N        0.36065    0.26938    0.35855    1.000
    Si1822   Si       0.26561    0.25669    0.25324    1.000
    N1823    N        0.47110    0.28263    0.32214    1.000
    Si1824   Si       0.44375    0.26823    0.35306    1.000
    N1825    N        0.42107    0.30395    0.36207    1.000
    N1826    N        0.27348    0.25313    0.42384    1.000
    N1827    N        0.32177    0.26054    0.47397    1.000
    Si1828   Si       0.31507    0.26081    0.43110    1.000
    Si1829   Si       0.24616    0.29178    0.43181    1.000
    Si1830   Si       0.29164    0.28687    0.49202    1.000
    Si1831   Si       0.35967    0.25294    0.49215    1.000
    N1832    N        0.32168    0.29888    0.41271    1.000
    N1833    N        0.25278    0.30434    0.38817    1.000
    N1834    N        0.46571    0.25122    0.38494    1.000
    N1835    N        0.44528    0.29545    0.46643    1.000
    Si1836   Si       0.43740    0.25446    0.47888    1.000
    N1837    N        0.26418    0.26846    0.51822    1.000
    Si1838   Si       0.27371    0.27526    0.55946    1.000
    N1839    N        0.24864    0.27383    0.59405    1.000
    N1840    N        0.30697    0.24974    0.56355    1.000
    N1841    N        0.37178    0.28662    0.51509    1.000
    N1842    N        0.36972    0.25636    0.57700    1.000
    Si1843   Si       0.46664    0.28131    0.53971    1.000
    Si1844   Si       0.38293    0.29227    0.55640    1.000
    N1845    N        0.42627    0.29071    0.55786    1.000
    N1846    N        0.47660    0.26097    0.57853    1.000
    Si1847   Si       0.43445    0.25348    0.58562    1.000
    Si1848   Si       0.37301    0.25901    0.62056    1.000
    N1849    N        0.35251    0.29167    0.63540    1.000
    N1850    N        0.24867    0.27445    0.66377    1.000
    Si1851   Si       0.27416    0.25129    0.69167    1.000
    N1852    N        0.29934    0.27815    0.71699    1.000
    Si1853   Si       0.26437    0.25213    0.63028    1.000
    Si1854   Si       0.33170    0.25996    0.74195    1.000
    N1855    N        0.41665    0.26074    0.62227    1.000
    N1856    N        0.46497    0.25313    0.67398    1.000
    N1857    N        0.36491    0.28416    0.72421    1.000
    Si1858   Si       0.47119    0.26696    0.71496    1.000
    Si1859   Si       0.39529    0.25270    0.72792    1.000
    N1860    N        0.43337    0.27295    0.73636    1.000
    Si1861   Si       0.42477    0.26823    0.66405    1.000
    N1862    N        0.33301    0.28671    0.78942    1.000
    N1863    N        0.26943    0.25741    0.82935    1.000
    Si1864   Si       0.30728    0.25306    0.80653    1.000
    N1865    N        0.36272    0.29030    0.85104    1.000
    Si1866   Si       0.42346    0.26310    0.81897    1.000
    N1867    N        0.40356    0.29038    0.79208    1.000
    N1868    N        0.44847    0.29278    0.83985    1.000
    Si1869   Si       0.49095    0.28261    0.83475    1.000
    N1870    N        0.34834    0.27012    0.92036    1.000
    N1871    N        0.31051    0.27376    0.98397    1.000
    Si1872   Si       0.26906    0.27292    0.97712    1.000
    N1873    N        0.26615    0.27830    0.93364    1.000
    Si1874   Si       0.33677    0.29393    0.95457    1.000
    Si1875   Si       0.24149    0.25012    0.90929    1.000
    Si1876   Si       0.34887    0.30292    0.88971    1.000
    Si1877   Si       0.46723    0.28082    0.95012    1.000
    N1878    N        0.42789    0.29984    0.94868    1.000
    N1879    N        0.48661    0.29779    0.98486    1.000
    N1880    N        0.36793    0.29696    0.98612    1.000
    Si1881   Si       0.41056    0.28881    0.98701    1.000
    N1882    N        0.27633    0.33321    0.09394    1.000
    Si1883   Si       0.34451    0.35500    0.04209    1.000
    N1884    N        0.32553    0.31527    0.03972    1.000
    Si1885   Si       0.46531    0.32236    0.01742    1.000
    N1886    N        0.38150    0.34334    0.05913    1.000
    Si1887   Si       0.47332    0.36075    0.11731    1.000
    N1888    N        0.42622    0.30624    0.02533    1.000
    N1889    N        0.26582    0.34419    0.19198    1.000
    Si1890   Si       0.34271    0.34822    0.23085    1.000
    Si1891   Si       0.28206    0.33553    0.14712    1.000
    Si1892   Si       0.28198    0.31680    0.22038    1.000
    N1893    N        0.32796    0.33331    0.15481    1.000
    N1894    N        0.32768    0.31065    0.21830    1.000
    Si1895   Si       0.34955    0.30254    0.17810    1.000
    Si1896   Si       0.48974    0.32907    0.23556    1.000
    N1897    N        0.45242    0.33873    0.21522    1.000
    N1898    N        0.38664    0.35912    0.12813    1.000
    Si1899   Si       0.41003    0.32384    0.13840    1.000
    N1900    N        0.44940    0.34250    0.14693    1.000
    N1901    N        0.39333    0.30593    0.17513    1.000
    N1902    N        0.27674    0.33059    0.26157    1.000
    Si1903   Si       0.25099    0.31653    0.29270    1.000
    N1904    N        0.24891    0.33936    0.33175    1.000
    N1905    N        0.35544    0.35218    0.27236    1.000
    N1906    N        0.35821    0.33366    0.33060    1.000
    N1907    N        0.41885    0.34280    0.30388    1.000
    Si1908   Si       0.45943    0.32573    0.31314    1.000
    N1909    N        0.46876    0.35117    0.34913    1.000
    Si1910   Si       0.38053    0.31989    0.29018    1.000
    N1911    N        0.47474    0.34294    0.27609    1.000
    Si1912   Si       0.43145    0.34632    0.25773    1.000
    Si1913   Si       0.37728    0.30933    0.36234    1.000
    N1914    N        0.40500    0.31308    0.24933    1.000
    N1915    N        0.29564    0.35871    0.37770    1.000
    Si1916   Si       0.29452    0.31357    0.37862    1.000
    Si1917   Si       0.28441    0.35107    0.46909    1.000
    Si1918   Si       0.34952    0.32709    0.43036    1.000
    N1919    N        0.27182    0.31049    0.46194    1.000
    N1920    N        0.32501    0.35991    0.45027    1.000
    Si1921   Si       0.35762    0.32214    0.49779    1.000
    Si1922   Si       0.47753    0.30968    0.43999    1.000
    Si1923   Si       0.43630    0.34199    0.37950    1.000
    N1924    N        0.38033    0.31598    0.45993    1.000
    Si1925   Si       0.42148    0.33371    0.45603    1.000
    N1926    N        0.37305    0.33608    0.39616    1.000
    N1927    N        0.44598    0.33349    0.42050    1.000
    N1928    N        0.44370    0.36127    0.48448    1.000
    N1929    N        0.27209    0.32024    0.56249    1.000
    Si1930   Si       0.29522    0.34690    0.53614    1.000
    N1931    N        0.31601    0.32047    0.50813    1.000
    Si1932   Si       0.46743    0.35611    0.52040    1.000
    N1933    N        0.38342    0.33528    0.56430    1.000
    Si1934   Si       0.42668    0.33276    0.57348    1.000
    N1935    N        0.44989    0.32710    0.60984    1.000
    N1936    N        0.48533    0.32028    0.53339    1.000
    Si1937   Si       0.35193    0.33494    0.64442    1.000
    N1938    N        0.26945    0.33642    0.68563    1.000
    Si1939   Si       0.28491    0.31869    0.72144    1.000
    N1940    N        0.35648    0.34498    0.68807    1.000
    N1941    N        0.31566    0.34350    0.73916    1.000
    N1942    N        0.31440    0.35620    0.63071    1.000
    Si1943   Si       0.38301    0.31623    0.70496    1.000
    N1944    N        0.38884    0.35833    0.62940    1.000
    Si1945   Si       0.48590    0.34620    0.62673    1.000
    N1946    N        0.40655    0.33898    0.73457    1.000
    N1947    N        0.41242    0.30786    0.67344    1.000
    N1948    N        0.45911    0.35746    0.66426    1.000
    Si1949   Si       0.42290    0.33666    0.64351    1.000
    N1950    N        0.48872    0.30617    0.72049    1.000
    N1951    N        0.28830    0.33686    0.80929    1.000
    Si1952   Si       0.30011    0.34409    0.85233    1.000
    Si1953   Si       0.31874    0.32872    0.78099    1.000
    Si1954   Si       0.24826    0.33803    0.79208    1.000
    N1955    N        0.35648    0.34461    0.79542    1.000
    N1956    N        0.25200    0.32506    0.75037    1.000
    Si1957   Si       0.36734    0.30416    0.81019    1.000
    N1958    N        0.40020    0.34584    0.84411    1.000
    Si1959   Si       0.44051    0.33336    0.85090    1.000
    N1960    N        0.46147    0.33116    0.77780    1.000
    Si1961   Si       0.42773    0.30904    0.76156    1.000
    N1962    N        0.31355    0.33017    0.94656    1.000
    Si1963   Si       0.28257    0.31712    0.92004    1.000
    N1964    N        0.30584    0.31392    0.88362    1.000
    N1965    N        0.24603    0.33858    0.91004    1.000
    N1966    N        0.45100    0.33794    0.89313    1.000
    Si1967   Si       0.41975    0.33529    0.92505    1.000
    N1968    N        0.37902    0.33118    0.90577    1.000
    N1969    N        0.31427    0.38490    0.05691    1.000
    Si1970   Si       0.28452    0.38030    0.09128    1.000
    Si1971   Si       0.30308    0.41486    0.02492    1.000
    N1972    N        0.24325    0.38012    0.07032    1.000
    N1973    N        0.35081    0.36947    0.00369    1.000
    N1974    N        0.37469    0.40516    0.08186    1.000
    Si1975   Si       0.46922    0.38437    0.05094    1.000
    Si1976   Si       0.39951    0.36866    0.08784    1.000
    N1977    N        0.44330    0.36454    0.08190    1.000
    N1978    N        0.45991    0.36441    0.01452    1.000
    N1979    N        0.48094    0.40501    0.12259    1.000
    Si1980   Si       0.25517    0.38556    0.20062    1.000
    N1981    N        0.33444    0.40910    0.16235    1.000
    N1982    N        0.31417    0.38030    0.23367    1.000
    N1983    N        0.27904    0.37980    0.13531    1.000
    Si1984   Si       0.32678    0.41466    0.20711    1.000
    Si1985   Si       0.35352    0.37041    0.15552    1.000
    Si1986   Si       0.29168    0.41869    0.15065    1.000
    N1987    N        0.24865    0.38837    0.24492    1.000
    N1988    N        0.28318    0.42032    0.19581    1.000
    N1989    N        0.36717    0.36466    0.19786    1.000
    N1990    N        0.42745    0.40554    0.18354    1.000
    Si1991   Si       0.45328    0.36915    0.18224    1.000
    Si1992   Si       0.39302    0.39587    0.21372    1.000
    N1993    N        0.41823    0.38498    0.24653    1.000
    N1994    N        0.30194    0.38021    0.30688    1.000
    N1995    N        0.24896    0.40635    0.34587    1.000
    Si1996   Si       0.28583    0.37384    0.26551    1.000
    Si1997   Si       0.27673    0.37266    0.34106    1.000
    Si1998   Si       0.34388    0.37015    0.31235    1.000
    N1999    N        0.37425    0.39927    0.31964    1.000
    Si2000   Si       0.41487    0.38191    0.32662    1.000
    N2001    N        0.44065    0.40846    0.30766    1.000
    Si2002   Si       0.44415    0.41646    0.26348    1.000
    N2003    N        0.41368    0.38202    0.37218    1.000
    N2004    N        0.48672    0.41060    0.25468    1.000
    N2005    N        0.26359    0.37406    0.43370    1.000
    Si2006   Si       0.30382    0.38186    0.41308    1.000
    N2007    N        0.34607    0.39675    0.39974    1.000
    Si2008   Si       0.35892    0.38261    0.47007    1.000
    N2009    N        0.46773    0.40165    0.44001    1.000
    Si2010   Si       0.49026    0.41373    0.40658    1.000
    N2011    N        0.39631    0.37426    0.44548    1.000
    Si2012   Si       0.38384    0.37771    0.40363    1.000
    Si2013   Si       0.42930    0.40020    0.46052    1.000
    Si2014   Si       0.31819    0.38690    0.59890    1.000
    N2015    N        0.27582    0.37256    0.50649    1.000
    N2016    N        0.28365    0.41185    0.59176    1.000
    Si2017   Si       0.26589    0.41574    0.50708    1.000
    N2018    N        0.35166    0.41477    0.61106    1.000
    N2019    N        0.32455    0.36648    0.56243    1.000
    N2020    N        0.36670    0.36319    0.50593    1.000
    Si2021   Si       0.36516    0.37229    0.54820    1.000
    Si2022   Si       0.45722    0.40057    0.58207    1.000
    N2023    N        0.44616    0.36765    0.55606    1.000
    N2024    N        0.48943    0.38538    0.60834    1.000
    N2025    N        0.42044    0.41675    0.59918    1.000
    N2026    N        0.36747    0.41661    0.54803    1.000
    Si2027   Si       0.28850    0.36911    0.66373    1.000
    N2028    N        0.25231    0.39157    0.65368    1.000
    N2029    N        0.30993    0.39655    0.68904    1.000
    Si2030   Si       0.33791    0.37136    0.71638    1.000
    Si2031   Si       0.44670    0.39747    0.67749    1.000
    Si2032   Si       0.40884    0.38092    0.74155    1.000
    Si2033   Si       0.38990    0.40108    0.62641    1.000
    N2034    N        0.44585    0.39427    0.72151    1.000
    N2035    N        0.36912    0.39842    0.73250    1.000
    Si2036   Si       0.48560    0.40648    0.73284    1.000
    N2037    N        0.40834    0.41159    0.66491    1.000
    Si2038   Si       0.26230    0.40149    0.82220    1.000
    N2039    N        0.27094    0.37692    0.85621    1.000
    Si2040   Si       0.33011    0.40862    0.84803    1.000
    N2041    N        0.33587    0.36836    0.86223    1.000
    N2042    N        0.30321    0.41673    0.81511    1.000
    N2043    N        0.37091    0.41154    0.82977    1.000
    Si2044   Si       0.38334    0.37320    0.81153    1.000
    N2045    N        0.41546    0.38141    0.78496    1.000
    Si2046   Si       0.45659    0.37222    0.79522    1.000
    N2047    N        0.45978    0.37277    0.83848    1.000
    Si2048   Si       0.44348    0.40443    0.86698    1.000
    N2049    N        0.48690    0.39259    0.77439    1.000
    N2050    N        0.34457    0.39163    0.93533    1.000
    Si2051   Si       0.25681    0.40053    0.96198    1.000
    N2052    N        0.27500    0.39857    0.92221    1.000
    N2053    N        0.29452    0.39501    0.98562    1.000
    Si2054   Si       0.24964    0.37851    0.89485    1.000
    Si2055   Si       0.32483    0.36882    0.96666    1.000
    Si2056   Si       0.31474    0.42150    0.92036    1.000
    N2057    N        0.48821    0.39282    0.96035    1.000
    Si2058   Si       0.44850    0.39031    0.98092    1.000
    N2059    N        0.41985    0.37361    0.94968    1.000
    N2060    N        0.40482    0.39610    0.88959    1.000
    Si2061   Si       0.38874    0.40034    0.93110    1.000
    N2062    N        0.47487    0.41887    0.89430    1.000
    Si2063   Si       0.37729    0.36315    0.87644    1.000
    N2064    N        0.33152    0.44426    0.04111    1.000
    Si2065   Si       0.26704    0.45902    0.10565    1.000
    N2066    N        0.26303    0.43646    0.03075    1.000
    N2067    N        0.35430    0.46444    0.10236    1.000
    Si2068   Si       0.35974    0.47679    0.03420    1.000
    N2069    N        0.29556    0.42561    0.10075    1.000
    Si2070   Si       0.24349    0.46041    0.00129    1.000
    Si2071   Si       0.33409    0.42403    0.07914    1.000
    Si2072   Si       0.39128    0.44349    0.08786    1.000
    Si2073   Si       0.43725    0.45197    0.03244    1.000
    Si2074   Si       0.46227    0.43744    0.10189    1.000
    N2075    N        0.40011    0.46720    0.05038    1.000
    N2076    N        0.48484    0.47388    0.11655    1.000
    N2077    N        0.45431    0.42503    0.06058    1.000
    N2078    N        0.42091    0.44313    0.12102    1.000
    N2079    N        0.26771    0.45668    0.15036    1.000
    Si2080   Si       0.26102    0.46059    0.19487    1.000
    N2081    N        0.36275    0.42629    0.22575    1.000
    Si2082   Si       0.42387    0.44614    0.16505    1.000
    N2083    N        0.45387    0.47431    0.17944    1.000
    N2084    N        0.42548    0.45061    0.24270    1.000
    N2085    N        0.38880    0.47612    0.16941    1.000
    N2086    N        0.33504    0.44662    0.35068    1.000
    N2087    N        0.24708    0.44977    0.28977    1.000
    Si2088   Si       0.24629    0.44564    0.33340    1.000
    N2089    N        0.27008    0.47837    0.35140    1.000
    Si2090   Si       0.31021    0.47994    0.33929    1.000
    N2091    N        0.48265    0.46333    0.30283    1.000
    N2092    N        0.37096    0.46271    0.29174    1.000
    Si2093   Si       0.37268    0.44397    0.33024    1.000
    N2094    N        0.40664    0.45441    0.35468    1.000
    Si2095   Si       0.47441    0.42830    0.32797    1.000
    N2096    N        0.46734    0.42576    0.37059    1.000
    Si2097   Si       0.38143    0.45595    0.25092    1.000
    N2098    N        0.29147    0.42562    0.40826    1.000
    N2099    N        0.35372    0.46797    0.41461    1.000
    Si2100   Si       0.25321    0.43163    0.42754    1.000
    N2101    N        0.25303    0.43561    0.46855    1.000
    Si2102   Si       0.33109    0.43667    0.39237    1.000
    N2103    N        0.36245    0.42517    0.47487    1.000
    Si2104   Si       0.42427    0.42572    0.38209    1.000
    N2105    N        0.42338    0.42544    0.49819    1.000
    Si2106   Si       0.38085    0.45323    0.44619    1.000
    N2107    N        0.41032    0.43153    0.42268    1.000
    Si2108   Si       0.27888    0.44794    0.57150    1.000
    N2109    N        0.29023    0.44246    0.52772    1.000
    Si2110   Si       0.35412    0.44504    0.57987    1.000
    N2111    N        0.31472    0.47117    0.58540    1.000
    N2112    N        0.24335    0.47438    0.57013    1.000
    Si2113   Si       0.31123    0.47939    0.51396    1.000
    N2114    N        0.35180    0.47769    0.52633    1.000
    Si2115   Si       0.38189    0.44107    0.51496    1.000
    Si2116   Si       0.42477    0.45837    0.57916    1.000
    N2117    N        0.46592    0.43599    0.55746    1.000
    Si2118   Si       0.45000    0.45185    0.52114    1.000
    N2119    N        0.41321    0.47020    0.53752    1.000
    N2120    N        0.38265    0.47706    0.59001    1.000
    N2121    N        0.34592    0.45659    0.69948    1.000
    Si2122   Si       0.30601    0.44046    0.68796    1.000
    N2123    N        0.28162    0.45020    0.72320    1.000
    Si2124   Si       0.24906    0.43526    0.65561    1.000
    N2125    N        0.28675    0.45757    0.65486    1.000
    Si2126   Si       0.30593    0.48032    0.74358    1.000
    Si2127   Si       0.24031    0.46227    0.72587    1.000
    Si2128   Si       0.36532    0.44202    0.73738    1.000
    N2129    N        0.40859    0.45279    0.73034    1.000
    N2130    N        0.46380    0.43786    0.67890    1.000
    Si2131   Si       0.42090    0.44731    0.68793    1.000
    Si2132   Si       0.31182    0.45633    0.79902    1.000
    N2133    N        0.33992    0.46384    0.76465    1.000
    Si2134   Si       0.34388    0.47462    0.86870    1.000
    N2135    N        0.24349    0.43815    0.83191    1.000
    N2136    N        0.33704    0.47926    0.82642    1.000
    Si2137   Si       0.42703    0.47481    0.76321    1.000
    N2138    N        0.43715    0.44085    0.84597    1.000
    Si2139   Si       0.39509    0.44793    0.83493    1.000
    N2140    N        0.40007    0.47057    0.79852    1.000
    N2141    N        0.46714    0.47121    0.78335    1.000
    Si2142   Si       0.46372    0.47386    0.82871    1.000
    N2143    N        0.38631    0.47474    0.86968    1.000
    N2144    N        0.32416    0.43511    0.88084    1.000
    N2145    N        0.31718    0.45819    0.94437    1.000
    Si2146   Si       0.35892    0.46953    0.95389    1.000
    N2147    N        0.23687    0.43868    0.96269    1.000
    N2148    N        0.36272    0.48385    0.99379    1.000
    Si2149   Si       0.47785    0.46192    0.89863    1.000
    N2150    N        0.43935    0.46931    0.91579    1.000
    N2151    N        0.39015    0.43953    0.94720    1.000
    N2152    N        0.44104    0.43281    0.99132    1.000
    Si2153   Si       0.42801    0.45967    0.95858    1.000
    N2154    N        0.34241    0.51390    0.05314    1.000
    N2155    N        0.28239    0.49751    0.09110    1.000
    Si2156   Si       0.32660    0.50079    0.09170    1.000
    Si2157   Si       0.25215    0.53113    0.09539    1.000
    N2158    N        0.40830    0.51118    0.10387    1.000
    Si2159   Si       0.42367    0.50584    0.06369    1.000
    N2160    N        0.45826    0.48790    0.04511    1.000
    N2161    N        0.40914    0.53187    0.03240    1.000
    N2162    N        0.27793    0.48026    0.23210    1.000
    N2163    N        0.34519    0.52049    0.12784    1.000
    Si2164   Si       0.27486    0.51855    0.21271    1.000
    N2165    N        0.31093    0.52056    0.18887    1.000
    N2166    N        0.36392    0.49348    0.23435    1.000
    Si2167   Si       0.45174    0.47991    0.22347    1.000
    N2168    N        0.42650    0.51575    0.22278    1.000
    Si2169   Si       0.39055    0.50598    0.20145    1.000
    Si2170   Si       0.47780    0.49798    0.15080    1.000
    Si2171   Si       0.37901    0.49145    0.13060    1.000
    Si2172   Si       0.34443    0.50131    0.27487    1.000
    N2173    N        0.24865    0.51856    0.27928    1.000
    N2174    N        0.32704    0.51070    0.36614    1.000
    N2175    N        0.30919    0.48426    0.29611    1.000
    Si2176   Si       0.27129    0.48160    0.27463    1.000
    N2177    N        0.31784    0.53923    0.26883    1.000
    Si2178   Si       0.48344    0.50556    0.31829    1.000
    N2179    N        0.44295    0.51633    0.33063    1.000
    Si2180   Si       0.42584    0.49168    0.36457    1.000
    N2181    N        0.37596    0.53006    0.29346    1.000
    N2182    N        0.26654    0.53722    0.46687    1.000
    N2183    N        0.30868    0.48634    0.47185    1.000
    N2184    N        0.34772    0.53323    0.42748    1.000
    Si2185   Si       0.26502    0.48695    0.46109    1.000
    Si2186   Si       0.34669    0.50996    0.46471    1.000
    Si2187   Si       0.25406    0.50197    0.38500    1.000
    Si2188   Si       0.36006    0.50561    0.39395    1.000
    N2189    N        0.25185    0.47758    0.41947    1.000
    N2190    N        0.39589    0.51855    0.37610    1.000
    Si2191   Si       0.42332    0.50798    0.48832    1.000
    N2192    N        0.38743    0.49167    0.46893    1.000
    Si2193   Si       0.46045    0.52869    0.42174    1.000
    N2194    N        0.45637    0.49400    0.39618    1.000
    N2195    N        0.46200    0.48522    0.49695    1.000
    N2196    N        0.28977    0.51257    0.53435    1.000
    Si2197   Si       0.30959    0.51659    0.57271    1.000
    N2198    N        0.35468    0.52962    0.57350    1.000
    N2199    N        0.28897    0.52344    0.60946    1.000
    Si2200   Si       0.24653    0.50323    0.53800    1.000
    Si2201   Si       0.37012    0.51459    0.61223    1.000
    Si2202   Si       0.38202    0.50143    0.54841    1.000
    N2203    N        0.47490    0.52939    0.54662    1.000
    N2204    N        0.40549    0.53287    0.52213    1.000
    N2205    N        0.44788    0.48459    0.60463    1.000
    Si2206   Si       0.26665    0.53793    0.72388    1.000
    N2207    N        0.30431    0.51739    0.72143    1.000
    N2208    N        0.34444    0.50240    0.64539    1.000
    Si2209   Si       0.30538    0.48786    0.62813    1.000
    N2210    N        0.40568    0.48065    0.66710    1.000
    N2211    N        0.40486    0.53602    0.63123    1.000
    Si2212   Si       0.36523    0.49354    0.68286    1.000
    Si2213   Si       0.43219    0.50443    0.64183    1.000
    N2214    N        0.48228    0.49981    0.72163    1.000
    N2215    N        0.47172    0.51042    0.65861    1.000
    Si2216   Si       0.47660    0.53445    0.69489    1.000
    N2217    N        0.36835    0.52535    0.71200    1.000
    Si2218   Si       0.40377    0.54296    0.72844    1.000
    Si2219   Si       0.29168    0.52722    0.79138    1.000
    N2220    N        0.28063    0.53342    0.83307    1.000
    N2221    N        0.33425    0.53565    0.77864    1.000
    N2222    N        0.28233    0.48614    0.78531    1.000
    Si2223   Si       0.36473    0.49663    0.79447    1.000
    N2224    N        0.41999    0.51696    0.75827    1.000
    N2225    N        0.44934    0.51829    0.83222    1.000
    N2226    N        0.38475    0.53080    0.81536    1.000
    Si2227   Si       0.42536    0.53209    0.79848    1.000
    N2228    N        0.26168    0.49640    0.92223    1.000
    N2229    N        0.31716    0.52955    0.95645    1.000
    Si2230   Si       0.29194    0.49262    0.95167    1.000
    N2231    N        0.32869    0.51113    0.88516    1.000
    Si2232   Si       0.34307    0.53119    0.92248    1.000
    N2233    N        0.26527    0.49652    0.98796    1.000
    Si2234   Si       0.43679    0.53204    0.99973    1.000
    Si2235   Si       0.40855    0.49536    0.89990    1.000
    N2236    N        0.42747    0.53412    0.89702    1.000
    N2237    N        0.44884    0.49724    0.97640    1.000
    N2238    N        0.37537    0.50181    0.92859    1.000
    Si2239   Si       0.27903    0.58368    0.04935    1.000
    N2240    N        0.28413    0.55872    0.01180    1.000
    N2241    N        0.30473    0.58119    0.08492    1.000
    N2242    N        0.35636    0.56418    0.00442    1.000
    N2243    N        0.24449    0.55996    0.06464    1.000
    Si2244   Si       0.36708    0.54680    0.04105    1.000
    N2245    N        0.37611    0.57781    0.07105    1.000
    N2246    N        0.44559    0.56280    0.08066    1.000
    N2247    N        0.47318    0.55229    0.01566    1.000
    Si2248   Si       0.48319    0.56254    0.05576    1.000
    Si2249   Si       0.41789    0.58873    0.06274    1.000
    Si2250   Si       0.42887    0.54788    0.11887    1.000
    Si2251   Si       0.29350    0.58312    0.12876    1.000
    N2252    N        0.26573    0.55099    0.13441    1.000
    N2253    N        0.32465    0.58084    0.15947    1.000
    N2254    N        0.26280    0.55832    0.22599    1.000
    Si2255   Si       0.33952    0.54067    0.16556    1.000
    Si2256   Si       0.28006    0.59576    0.23974    1.000
    Si2257   Si       0.42090    0.55643    0.23760    1.000
    N2258    N        0.41635    0.58524    0.13736    1.000
    N2259    N        0.38077    0.54459    0.18298    1.000
    N2260    N        0.43794    0.58302    0.20599    1.000
    Si2261   Si       0.40350    0.58137    0.18024    1.000
    N2262    N        0.46437    0.53869    0.14141    1.000
    N2263    N        0.38245    0.57691    0.24659    1.000
    N2264    N        0.28169    0.55242    0.33339    1.000
    Si2265   Si       0.35279    0.56452    0.27656    1.000
    Si2266   Si       0.27962    0.54692    0.29043    1.000
    N2267    N        0.27359    0.59112    0.28430    1.000
    Si2268   Si       0.30256    0.54650    0.37055    1.000
    Si2269   Si       0.26560    0.59373    0.32966    1.000
    N2270    N        0.34754    0.59728    0.30476    1.000
    N2271    N        0.40864    0.57841    0.33798    1.000
    N2272    N        0.43959    0.55923    0.27679    1.000
    Si2273   Si       0.48063    0.56988    0.28878    1.000
    N2274    N        0.48103    0.59120    0.32637    1.000
    Si2275   Si       0.41539    0.54464    0.30954    1.000
    Si2276   Si       0.25230    0.56349    0.43028    1.000
    N2277    N        0.32533    0.58014    0.38275    1.000
    Si2278   Si       0.35355    0.57424    0.41692    1.000
    N2279    N        0.27271    0.53863    0.40013    1.000
    N2280    N        0.33701    0.54035    0.49640    1.000
    N2281    N        0.39335    0.58505    0.40398    1.000
    Si2282   Si       0.43801    0.57880    0.47495    1.000
    Si2283   Si       0.41325    0.55902    0.37633    1.000
    N2284    N        0.39508    0.58736    0.47911    1.000
    N2285    N        0.45269    0.56176    0.39448    1.000
    N2286    N        0.44065    0.53727    0.46000    1.000
    N2287    N        0.30414    0.57653    0.57591    1.000
    Si2288   Si       0.34805    0.57311    0.56930    1.000
    N2289    N        0.28272    0.58611    0.51073    1.000
    N2290    N        0.35730    0.59181    0.53202    1.000
    Si2291   Si       0.29024    0.56543    0.61761    1.000
    Si2292   Si       0.29457    0.54486    0.50075    1.000
    N2293    N        0.36596    0.59415    0.60118    1.000
    N2294    N        0.45865    0.58094    0.51204    1.000
    Si2295   Si       0.43940    0.55175    0.54090    1.000
    N2296    N        0.42108    0.58350    0.56573    1.000
    Si2297   Si       0.37438    0.56194    0.50691    1.000
    Si2298   Si       0.49120    0.59961    0.53649    1.000
    N2299    N        0.25193    0.58415    0.62760    1.000
    N2300    N        0.26623    0.56997    0.69468    1.000
    N2301    N        0.32768    0.58393    0.71576    1.000
    N2302    N        0.31635    0.58277    0.64776    1.000
    Si2303   Si       0.33437    0.54648    0.73523    1.000
    Si2304   Si       0.29821    0.59542    0.68520    1.000
    Si2305   Si       0.36559    0.60326    0.70877    1.000
    N2306    N        0.44776    0.58891    0.64774    1.000
    N2307    N        0.39018    0.58203    0.73781    1.000
    N2308    N        0.43341    0.54861    0.69657    1.000
    N2309    N        0.37954    0.59330    0.66824    1.000
    Si2310   Si       0.41350    0.56775    0.66226    1.000
    N2311    N        0.33447    0.56877    0.84799    1.000
    Si2312   Si       0.35356    0.55890    0.81117    1.000
    N2313    N        0.27159    0.55609    0.76625    1.000
    Si2314   Si       0.30573    0.54206    0.86614    1.000
    Si2315   Si       0.24258    0.58450    0.78122    1.000
    N2316    N        0.43288    0.57633    0.79430    1.000
    N2317    N        0.45145    0.58543    0.85443    1.000
    Si2318   Si       0.46835    0.59049    0.81554    1.000
    N2319    N        0.36989    0.59410    0.79695    1.000
    Si2320   Si       0.45841    0.54284    0.86679    1.000
    N2321    N        0.29105    0.56245    0.90189    1.000
    Si2322   Si       0.31848    0.56348    0.98317    1.000
    N2323    N        0.24452    0.55847    0.95196    1.000
    Si2324   Si       0.35520    0.59261    0.87842    1.000
    Si2325   Si       0.25677    0.53961    0.91566    1.000
    Si2326   Si       0.25102    0.53885    0.99153    1.000
    N2327    N        0.36626    0.56625    0.91076    1.000
    Si2328   Si       0.39318    0.58561    0.99201    1.000
    N2329    N        0.41692    0.55676    0.97014    1.000
    Si2330   Si       0.40864    0.56155    0.92595    1.000
    N2331    N        0.27012    0.62477    0.03846    1.000
    N2332    N        0.33348    0.64256    0.06664    1.000
    Si2333   Si       0.34334    0.60344    0.08389    1.000
    Si2334   Si       0.30175    0.65573    0.04025    1.000
    N2335    N        0.35342    0.62446    0.12165    1.000
    N2336    N        0.42556    0.62917    0.07957    1.000
    Si2337   Si       0.45653    0.62373    0.00067    1.000
    N2338    N        0.47643    0.65115    0.02746    1.000
    N2339    N        0.42268    0.60213    0.02006    1.000
    N2340    N        0.27727    0.62168    0.14081    1.000
    N2341    N        0.26521    0.62806    0.21551    1.000
    Si2342   Si       0.34588    0.61886    0.16453    1.000
    Si2343   Si       0.28258    0.64246    0.17877    1.000
    N2344    N        0.32390    0.65359    0.18276    1.000
    Si2345   Si       0.36418    0.61346    0.23330    1.000
    N2346    N        0.32225    0.60417    0.24468    1.000
    N2347    N        0.37895    0.61743    0.19283    1.000
    Si2348   Si       0.43330    0.62424    0.12123    1.000
    N2349    N        0.47727    0.61801    0.12611    1.000
    Si2350   Si       0.40659    0.65633    0.19084    1.000
    N2351    N        0.42601    0.65547    0.15057    1.000
    N2352    N        0.42803    0.65647    0.22779    1.000
    Si2353   Si       0.47803    0.59670    0.21279    1.000
    N2354    N        0.29628    0.62157    0.33693    1.000
    Si2355   Si       0.30978    0.62070    0.29344    1.000
    Si2356   Si       0.32562    0.62252    0.36863    1.000
    N2357    N        0.24280    0.65663    0.33084    1.000
    N2358    N        0.36676    0.62924    0.36185    1.000
    N2359    N        0.36797    0.64980    0.25731    1.000
    N2360    N        0.41767    0.62874    0.30375    1.000
    Si2361   Si       0.44966    0.62121    0.33156    1.000
    Si2362   Si       0.38177    0.60981    0.32500    1.000
    Si2363   Si       0.41025    0.65401    0.26868    1.000
    Si2364   Si       0.30146    0.63071    0.43702    1.000
    N2365    N        0.33972    0.60737    0.44383    1.000
    N2366    N        0.30425    0.65067    0.39647    1.000
    Si2367   Si       0.25655    0.60453    0.48064    1.000
    N2368    N        0.29178    0.64947    0.47616    1.000
    N2369    N        0.26925    0.60212    0.43885    1.000
    N2370    N        0.36251    0.65412    0.49078    1.000
    N2371    N        0.44233    0.62835    0.37794    1.000
    N2372    N        0.45507    0.60877    0.44689    1.000
    Si2373   Si       0.37536    0.62296    0.46243    1.000
    Si2374   Si       0.46016    0.64853    0.46389    1.000
    N2375    N        0.39186    0.64718    0.42868    1.000
    Si2376   Si       0.40004    0.62737    0.39063    1.000
    Si2377   Si       0.46458    0.60243    0.40449    1.000
    Si2378   Si       0.35271    0.63492    0.53098    1.000
    N2379    N        0.31387    0.64427    0.54704    1.000
    Si2380   Si       0.28805    0.60646    0.55029    1.000
    N2381    N        0.24828    0.61640    0.56470    1.000
    Si2382   Si       0.40048    0.61649    0.58599    1.000
    N2383    N        0.38225    0.64860    0.55771    1.000
    N2384    N        0.48050    0.64008    0.53679    1.000
    N2385    N        0.41507    0.64246    0.61672    1.000
    N2386    N        0.47952    0.64281    0.61975    1.000
    N2387    N        0.34350    0.64914    0.62892    1.000
    N2388    N        0.28780    0.63735    0.67804    1.000
    Si2389   Si       0.34907    0.60781    0.63824    1.000
    N2390    N        0.24958    0.65172    0.72824    1.000
    Si2391   Si       0.46553    0.64120    0.71678    1.000
    N2392    N        0.36819    0.64486    0.71662    1.000
    N2393    N        0.43747    0.64973    0.68486    1.000
    Si2394   Si       0.44518    0.63247    0.64468    1.000
    N2395    N        0.32090    0.64382    0.77113    1.000
    N2396    N        0.25614    0.62440    0.79205    1.000
    Si2397   Si       0.27709    0.64661    0.76075    1.000
    Si2398   Si       0.37468    0.63144    0.82006    1.000
    N2399    N        0.38717    0.61791    0.85965    1.000
    N2400    N        0.39344    0.64529    0.78289    1.000
    Si2401   Si       0.40838    0.60310    0.77067    1.000
    N2402    N        0.44262    0.62663    0.75010    1.000
    Si2403   Si       0.33705    0.63525    0.96908    1.000
    N2404    N        0.32497    0.62226    0.89391    1.000
    N2405    N        0.25849    0.61902    0.92238    1.000
    Si2406   Si       0.24635    0.64896    0.89368    1.000
    Si2407   Si       0.29679    0.60165    0.91952    1.000
    N2408    N        0.31410    0.59884    0.95976    1.000
    N2409    N        0.45410    0.64853    0.87916    1.000
    N2410    N        0.42290    0.60286    0.91887    1.000
    Si2411   Si       0.42824    0.61480    0.87682    1.000
    N2412    N        0.37845    0.61841    0.96813    1.000
    Si2413   Si       0.41078    0.63576    0.94403    1.000
    N2414    N        0.43563    0.65185    0.97496    1.000
    N2415    N        0.28346    0.69205    0.05516    1.000
    N2416    N        0.30891    0.68007    0.11440    1.000
    Si2417   Si       0.34673    0.66345    0.10281    1.000
    N2418    N        0.35130    0.70886    0.03967    1.000
    Si2419   Si       0.24195    0.68890    0.06332    1.000
    Si2420   Si       0.30122    0.71490    0.08743    1.000
    N2421    N        0.32449    0.65661    0.00415    1.000
    Si2422   Si       0.27133    0.65929    0.12230    1.000
    Si2423   Si       0.34108    0.69745    0.99831    1.000
    N2424    N        0.41750    0.68324    0.03756    1.000
    N2425    N        0.38128    0.69017    0.10297    1.000
    N2426    N        0.46821    0.68040    0.09141    1.000
    Si2427   Si       0.38863    0.70441    0.06256    1.000
    Si2428   Si       0.44760    0.65886    0.05824    1.000
    N2429    N        0.26461    0.68005    0.16371    1.000
    Si2430   Si       0.33877    0.69271    0.18948    1.000
    N2431    N        0.33545    0.70363    0.23266    1.000
    Si2432   Si       0.40579    0.69216    0.13878    1.000
    N2433    N        0.46735    0.71453    0.20548    1.000
    N2434    N        0.37965    0.69037    0.17499    1.000
    Si2435   Si       0.46899    0.67606    0.22818    1.000
    Si2436   Si       0.33579    0.67705    0.26816    1.000
    N2437    N        0.29860    0.69300    0.34874    1.000
    Si2438   Si       0.25929    0.67738    0.29585    1.000
    N2439    N        0.35070    0.70134    0.30215    1.000
    Si2440   Si       0.27162    0.66261    0.36123    1.000
    N2441    N        0.29686    0.66159    0.28187    1.000
    N2442    N        0.41785    0.69183    0.28891    1.000
    Si2443   Si       0.45764    0.69041    0.30440    1.000
    N2444    N        0.48223    0.68579    0.26815    1.000
    N2445    N        0.46989    0.66051    0.33348    1.000
    N2446    N        0.24834    0.69343    0.38725    1.000
    N2447    N        0.25194    0.70615    0.45927    1.000
    Si2448   Si       0.25515    0.67351    0.48901    1.000
    Si2449   Si       0.32560    0.67811    0.47769    1.000
    N2450    N        0.31951    0.69959    0.43886    1.000
    Si2451   Si       0.31494    0.69754    0.39403    1.000
    N2452    N        0.39229    0.70683    0.45691    1.000
    Si2453   Si       0.45407    0.67107    0.37844    1.000
    N2454    N        0.43351    0.66604    0.49458    1.000
    N2455    N        0.41651    0.69434    0.38449    1.000
    N2456    N        0.45287    0.67650    0.43027    1.000
    Si2457   Si       0.39403    0.68447    0.49408    1.000
    Si2458   Si       0.41100    0.68595    0.42679    1.000
    N2459    N        0.25843    0.68226    0.53144    1.000
    Si2460   Si       0.29864    0.68467    0.54574    1.000
    N2461    N        0.31594    0.70436    0.50938    1.000
    Si2462   Si       0.39672    0.68786    0.56761    1.000
    N2463    N        0.44123    0.68839    0.56945    1.000
    Si2464   Si       0.45661    0.67532    0.53114    1.000
    Si2465   Si       0.46941    0.68199    0.60235    1.000
    N2466    N        0.38149    0.71133    0.60240    1.000
    N2467    N        0.39110    0.71021    0.53038    1.000
    N2468    N        0.48435    0.70888    0.52152    1.000
    Si2469   Si       0.35597    0.68921    0.63239    1.000
    Si2470   Si       0.25864    0.66918    0.68961    1.000
    N2471    N        0.27527    0.70822    0.69741    1.000
    N2472    N        0.48250    0.67840    0.73591    1.000
    Si2473   Si       0.39940    0.66814    0.69776    1.000
    N2474    N        0.41107    0.69177    0.73487    1.000
    N2475    N        0.38432    0.69533    0.66617    1.000
    N2476    N        0.45398    0.70587    0.63642    1.000
    Si2477   Si       0.27193    0.70271    0.85142    1.000
    N2478    N        0.28197    0.69035    0.76866    1.000
    Si2479   Si       0.31909    0.68263    0.79480    1.000
    N2480    N        0.35038    0.70094    0.77003    1.000
    N2481    N        0.34792    0.66629    0.82583    1.000
    Si2482   Si       0.24542    0.70446    0.78917    1.000
    Si2483   Si       0.36102    0.65927    0.75801    1.000
    N2484    N        0.30265    0.71384    0.82282    1.000
    N2485    N        0.24046    0.68212    0.82590    1.000
    Si2486   Si       0.36608    0.69824    0.84891    1.000
    N2487    N        0.40966    0.69265    0.85482    1.000
    N2488    N        0.45009    0.69283    0.79376    1.000
    Si2489   Si       0.42766    0.66758    0.76537    1.000
    N2490    N        0.48211    0.70161    0.84971    1.000
    Si2491   Si       0.48220    0.70910    0.76804    1.000
    Si2492   Si       0.44173    0.70870    0.83154    1.000
    Si2493   Si       0.31936    0.66480    0.89812    1.000
    N2494    N        0.25918    0.68598    0.96219    1.000
    N2495    N        0.34615    0.69915    0.88769    1.000
    N2496    N        0.27848    0.67526    0.88530    1.000
    N2497    N        0.33326    0.66848    0.94008    1.000
    Si2498   Si       0.43170    0.68287    0.89304    1.000
    Si2499   Si       0.41874    0.68681    0.99474    1.000
    N2500    N        0.40086    0.66692    0.91765    1.000
    Si2501   Si       0.36907    0.69404    0.93045    1.000
    N2502    N        0.37850    0.69654    0.97759    1.000
    N2503    N        0.31978    0.75272    0.07728    1.000
    N2504    N        0.26801    0.72839    0.11362    1.000
    Si2505   Si       0.35152    0.75330    0.04828    1.000
    N2506    N        0.39195    0.74717    0.06608    1.000
    N2507    N        0.45888    0.74287    0.05878    1.000
    Si2508   Si       0.46642    0.73987    0.01503    1.000
    Si2509   Si       0.46438    0.72215    0.09757    1.000
    Si2510   Si       0.42685    0.77311    0.06878    1.000
    Si2511   Si       0.34895    0.76476    0.16954    1.000
    N2512    N        0.32009    0.72830    0.16914    1.000
    Si2513   Si       0.27810    0.72225    0.15652    1.000
    N2514    N        0.24361    0.73782    0.17693    1.000
    Si2515   Si       0.34479    0.74534    0.24275    1.000
    N2516    N        0.34474    0.77550    0.20973    1.000
    N2517    N        0.23905    0.76470    0.24464    1.000
    Si2518   Si       0.46677    0.75738    0.21383    1.000
    N2519    N        0.43309    0.72327    0.12928    1.000
    N2520    N        0.46694    0.76817    0.17076    1.000
    Si2521   Si       0.43111    0.76448    0.14351    1.000
    N2522    N        0.38892    0.76696    0.15522    1.000
    Si2523   Si       0.48728    0.71890    0.16548    1.000
    N2524    N        0.31270    0.75818    0.33144    1.000
    Si2525   Si       0.26652    0.75458    0.27423    1.000
    N2526    N        0.30745    0.76150    0.26082    1.000
    N2527    N        0.25237    0.72107    0.29868    1.000
    N2528    N        0.24452    0.76090    0.35239    1.000
    Si2529   Si       0.33002    0.71785    0.33573    1.000
    Si2530   Si       0.31435    0.77123    0.37329    1.000
    N2531    N        0.46339    0.72624    0.32900    1.000
    N2532    N        0.38288    0.74906    0.26461    1.000
    N2533    N        0.40016    0.74121    0.33616    1.000
    Si2534   Si       0.43882    0.76095    0.33044    1.000
    Si2535   Si       0.38886    0.72235    0.29932    1.000
    Si2536   Si       0.48042    0.73406    0.37068    1.000
    Si2537   Si       0.25083    0.73728    0.38718    1.000
    Si2538   Si       0.28806    0.72945    0.44332    1.000
    N2539    N        0.29407    0.74443    0.40019    1.000
    N2540    N        0.29234    0.76422    0.46894    1.000
    N2541    N        0.34910    0.71880    0.37573    1.000
    Si2542   Si       0.39081    0.72966    0.37791    1.000
    N2543    N        0.46882    0.73861    0.41345    1.000
    N2544    N        0.41385    0.76233    0.49430    1.000
    N2545    N        0.40375    0.75965    0.40912    1.000
    Si2546   Si       0.39340    0.74984    0.45628    1.000
    Si2547   Si       0.31376    0.74248    0.52970    1.000
    Si2548   Si       0.31141    0.74349    0.60703    1.000
    N2549    N        0.31461    0.71879    0.57051    1.000
    N2550    N        0.27689    0.76600    0.53208    1.000
    N2551    N        0.34841    0.76928    0.52803    1.000
    N2552    N        0.27526    0.76945    0.60356    1.000
    N2553    N        0.40309    0.76832    0.56689    1.000
    Si2554   Si       0.38806    0.75351    0.52791    1.000
    Si2555   Si       0.38240    0.75450    0.60208    1.000
    N2556    N        0.47645    0.75746    0.58035    1.000
    N2557    N        0.33129    0.73226    0.71626    1.000
    Si2558   Si       0.25211    0.74820    0.69273    1.000
    Si2559   Si       0.31143    0.72989    0.67796    1.000
    N2560    N        0.28839    0.76869    0.67761    1.000
    N2561    N        0.27257    0.75534    0.74311    1.000
    Si2562   Si       0.29472    0.71733    0.73669    1.000
    N2563    N        0.32224    0.71697    0.63865    1.000
    Si2564   Si       0.41522    0.72130    0.65309    1.000
    N2565    N        0.43899    0.73252    0.69127    1.000
    Si2566   Si       0.42438    0.73399    0.73281    1.000
    Si2567   Si       0.47428    0.72567    0.66906    1.000
    N2568    N        0.40920    0.76088    0.63564    1.000
    N2569    N        0.47939    0.76757    0.65151    1.000
    N2570    N        0.46145    0.74366    0.75235    1.000
    Si2571   Si       0.32253    0.75231    0.81855    1.000
    N2572    N        0.32489    0.76432    0.77697    1.000
    Si2573   Si       0.35332    0.73964    0.75332    1.000
    N2574    N        0.24446    0.74615    0.80343    1.000
    N2575    N        0.36124    0.73955    0.83053    1.000
    N2576    N        0.26308    0.74200    0.87002    1.000
    N2577    N        0.43159    0.75028    0.82689    1.000
    Si2578   Si       0.39076    0.76931    0.83217    1.000
    N2579    N        0.39259    0.75837    0.74816    1.000
    N2580    N        0.26925    0.75590    0.94258    1.000
    Si2581   Si       0.27010    0.72511    0.97362    1.000
    Si2582   Si       0.28328    0.75986    0.90267    1.000
    N2583    N        0.31118    0.72778    0.98871    1.000
    N2584    N        0.32534    0.77128    0.90151    1.000
    N2585    N        0.45674    0.71518    0.90857    1.000
    N2586    N        0.44104    0.72442    0.98307    1.000
    N2587    N        0.39302    0.73486    0.92467    1.000
    Si2588   Si       0.36802    0.76722    0.90917    1.000
    Si2589   Si       0.48891    0.72894    0.88080    1.000
    Si2590   Si       0.43411    0.73586    0.94092    1.000
    N2591    N        0.31184    0.82245    0.08639    1.000
    N2592    N        0.35070    0.79141    0.02558    1.000
    N2593    N        0.28059    0.78824    0.03115    1.000
    Si2594   Si       0.31192    0.80896    0.01099    1.000
    N2595    N        0.25420    0.78765    0.09456    1.000
    Si2596   Si       0.29199    0.78617    0.07341    1.000
    Si2597   Si       0.34287    0.82354    0.11604    1.000
    Si2598   Si       0.25340    0.82919    0.10909    1.000
    N2599    N        0.37397    0.81556    0.08675    1.000
    N2600    N        0.43734    0.78883    0.10735    1.000
    N2601    N        0.42352    0.80549    0.04036    1.000
    Si2602   Si       0.38136    0.81960    0.04501    1.000
    Si2603   Si       0.44936    0.81596    0.00736    1.000
    Si2604   Si       0.45623    0.82874    0.10644    1.000
    Si2605   Si       0.31269    0.79669    0.23118    1.000
    Si2606   Si       0.30052    0.82383    0.17131    1.000
    N2607    N        0.28243    0.79589    0.19977    1.000
    N2608    N        0.32669    0.79806    0.14682    1.000
    Si2609   Si       0.24462    0.77422    0.19858    1.000
    N2610    N        0.42980    0.77877    0.22361    1.000
    N2611    N        0.46285    0.83189    0.15041    1.000
    Si2612   Si       0.41835    0.82201    0.21811    1.000
    Si2613   Si       0.49091    0.81939    0.23834    1.000
    N2614    N        0.26867    0.79571    0.29762    1.000
    Si2615   Si       0.25968    0.80053    0.33916    1.000
    Si2616   Si       0.31575    0.78811    0.29810    1.000
    N2617    N        0.31780    0.82407    0.26463    1.000
    N2618    N        0.35757    0.79797    0.30536    1.000
    N2619    N        0.29184    0.80967    0.36611    1.000
    Si2620   Si       0.36819    0.81522    0.34336    1.000
    N2621    N        0.43421    0.78541    0.29618    1.000
    Si2622   Si       0.40920    0.78277    0.26087    1.000
    Si2623   Si       0.43889    0.82338    0.31442    1.000
    N2624    N        0.38805    0.81844    0.24989    1.000
    N2625    N        0.46083    0.77707    0.36473    1.000
    N2626    N        0.41046    0.82328    0.34757    1.000
    N2627    N        0.47930    0.83016    0.32742    1.000
    N2628    N        0.36139    0.78037    0.45073    1.000
    N2629    N        0.35360    0.79106    0.37675    1.000
    Si2630   Si       0.32240    0.79728    0.46227    1.000
    N2631    N        0.25118    0.81844    0.49041    1.000
    N2632    N        0.29981    0.82106    0.43341    1.000
    Si2633   Si       0.25737    0.77418    0.49417    1.000
    N2634    N        0.32223    0.82662    0.49567    1.000
    N2635    N        0.45282    0.79769    0.44152    1.000
    Si2636   Si       0.37761    0.79460    0.41233    1.000
    Si2637   Si       0.44445    0.77424    0.40582    1.000
    N2638    N        0.42124    0.83041    0.48755    1.000
    N2639    N        0.48749    0.78014    0.48980    1.000
    Si2640   Si       0.44576    0.79349    0.49507    1.000
    N2641    N        0.39736    0.83191    0.41975    1.000
    Si2642   Si       0.27373    0.79293    0.56637    1.000
    Si2643   Si       0.34175    0.81182    0.53315    1.000
    N2644    N        0.30915    0.82160    0.56173    1.000
    N2645    N        0.34425    0.77611    0.61003    1.000
    N2646    N        0.24116    0.82143    0.55875    1.000
    N2647    N        0.44980    0.81040    0.53907    1.000
    Si2648   Si       0.44376    0.78418    0.57319    1.000
    N2649    N        0.44837    0.80659    0.61069    1.000
    Si2650   Si       0.34340    0.81300    0.63178    1.000
    Si2651   Si       0.31281    0.80489    0.68693    1.000
    N2652    N        0.35541    0.80489    0.67670    1.000
    N2653    N        0.31102    0.81789    0.72766    1.000
    N2654    N        0.30516    0.82630    0.64776    1.000
    N2655    N        0.37819    0.82621    0.73740    1.000
    N2656    N        0.42694    0.81180    0.68147    1.000
    Si2657   Si       0.44029    0.78695    0.64957    1.000
    Si2658   Si       0.38708    0.82860    0.69433    1.000
    N2659    N        0.48627    0.80442    0.72207    1.000
    Si2660   Si       0.46068    0.83279    0.69975    1.000
    N2661    N        0.32067    0.79075    0.84027    1.000
    N2662    N        0.27764    0.81425    0.78878    1.000
    Si2663   Si       0.29380    0.78939    0.75779    1.000
    Si2664   Si       0.30857    0.82577    0.81773    1.000
    N2665    N        0.38425    0.80157    0.80431    1.000
    Si2666   Si       0.39650    0.79840    0.76360    1.000
    N2667    N        0.43787    0.81007    0.76755    1.000
    N2668    N        0.44785    0.82066    0.84048    1.000
    Si2669   Si       0.47243    0.78636    0.75802    1.000
    Si2670   Si       0.41461    0.82154    0.86895    1.000
    Si2671   Si       0.46259    0.78141    0.82771    1.000
    Si2672   Si       0.30961    0.81136    0.87895    1.000
    N2673    N        0.30919    0.81025    0.96753    1.000
    N2674    N        0.27091    0.80446    0.90242    1.000
    Si2675   Si       0.27138    0.79910    0.94729    1.000
    Si2676   Si       0.34365    0.82600    0.94462    1.000
    N2677    N        0.39243    0.78229    0.87493    1.000
    N2678    N        0.42089    0.82956    0.97679    1.000
    Si2679   Si       0.48763    0.78234    0.95810    1.000
    Si2680   Si       0.41988    0.81184    0.93812    1.000
    N2681    N        0.44740    0.77862    0.94061    1.000
    N2682    N        0.37665    0.80023    0.93655    1.000
    N2683    N        0.47581    0.77959    0.00136    1.000
    N2684    N        0.30818    0.85186    0.02262    1.000
    Si2685   Si       0.30362    0.85874    0.06565    1.000
    N2686    N        0.26369    0.86172    0.07933    1.000
    N2687    N        0.33612    0.88644    0.07699    1.000
    N2688    N        0.42851    0.86542    0.11010    1.000
    N2689    N        0.38155    0.86056    0.03117    1.000
    Si2690   Si       0.48471    0.88881    0.02116    1.000
    N2691    N        0.47625    0.85152    0.99868    1.000
    N2692    N        0.45108    0.88665    0.04789    1.000
    N2693    N        0.49030    0.83423    0.08226    1.000
    N2694    N        0.24769    0.89014    0.19394    1.000
    N2695    N        0.27476    0.84493    0.14352    1.000
    N2696    N        0.32495    0.84351    0.20302    1.000
    N2697    N        0.35040    0.86012    0.13993    1.000
    Si2698   Si       0.36105    0.86188    0.18503    1.000
    Si2699   Si       0.31275    0.86305    0.24339    1.000
    Si2700   Si       0.26474    0.88943    0.15246    1.000
    N2701    N        0.45335    0.84002    0.23654    1.000
    N2702    N        0.40176    0.84425    0.18569    1.000
    Si2703   Si       0.42698    0.86031    0.15467    1.000
    Si2704   Si       0.25941    0.87762    0.35105    1.000
    N2705    N        0.35433    0.87498    0.26062    1.000
    N2706    N        0.27031    0.86601    0.25921    1.000
    N2707    N        0.29698    0.87891    0.32792    1.000
    Si2708   Si       0.36029    0.83474    0.27973    1.000
    Si2709   Si       0.33566    0.88343    0.34889    1.000
    N2710    N        0.36146    0.85649    0.32395    1.000
    Si2711   Si       0.25335    0.83506    0.28432    1.000
    N2712    N        0.42675    0.86190    0.29768    1.000
    Si2713   Si       0.44628    0.87567    0.26166    1.000
    Si2714   Si       0.40059    0.87820    0.32981    1.000
    Si2715   Si       0.30215    0.86676    0.49247    1.000
    N2716    N        0.27386    0.87255    0.39168    1.000
    Si2717   Si       0.30302    0.84067    0.39423    1.000
    N2718    N        0.34097    0.85976    0.38713    1.000
    N2719    N        0.27785    0.87581    0.45776    1.000
    Si2720   Si       0.26048    0.83391    0.45153    1.000
    N2721    N        0.40413    0.88895    0.37300    1.000
    N2722    N        0.45278    0.87340    0.44710    1.000
    Si2723   Si       0.38132    0.86895    0.40405    1.000
    Si2724   Si       0.43278    0.83419    0.44605    1.000
    N2725    N        0.26997    0.87225    0.52520    1.000
    Si2726   Si       0.29088    0.86063    0.56306    1.000
    N2727    N        0.26941    0.86942    0.60240    1.000
    N2728    N        0.32664    0.88418    0.55411    1.000
    Si2729   Si       0.36074    0.86385    0.57384    1.000
    N2730    N        0.36350    0.84856    0.61585    1.000
    N2731    N        0.43806    0.87103    0.54585    1.000
    Si2732   Si       0.47507    0.84645    0.54569    1.000
    Si2733   Si       0.41496    0.83886    0.52872    1.000
    N2734    N        0.37677    0.83391    0.54598    1.000
    N2735    N        0.43204    0.87239    0.61889    1.000
    N2736    N        0.49031    0.87688    0.51424    1.000
    Si2737   Si       0.26899    0.84846    0.63963    1.000
    N2738    N        0.26354    0.87502    0.67469    1.000
    N2739    N        0.33451    0.88599    0.73164    1.000
    N2740    N        0.26256    0.88103    0.74506    1.000
    Si2741   Si       0.33924    0.84523    0.74749    1.000
    Si2742   Si       0.46697    0.84595    0.62190    1.000
    N2743    N        0.44826    0.86308    0.73007    1.000
    N2744    N        0.38556    0.86930    0.67918    1.000
    Si2745   Si       0.39144    0.87597    0.63618    1.000
    N2746    N        0.48423    0.84069    0.66222    1.000
    N2747    N        0.29019    0.84303    0.85147    1.000
    Si2748   Si       0.26790    0.88086    0.85799    1.000
    N2749    N        0.33841    0.84794    0.79470    1.000
    Si2750   Si       0.37866    0.89101    0.87002    1.000
    Si2751   Si       0.37826    0.84483    0.81218    1.000
    N2752    N        0.40799    0.86937    0.79134    1.000
    N2753    N        0.38493    0.85045    0.85553    1.000
    N2754    N        0.48014    0.86610    0.79076    1.000
    Si2755   Si       0.44295    0.85235    0.77212    1.000
    Si2756   Si       0.48037    0.84874    0.83112    1.000
    N2757    N        0.47584    0.88154    0.86289    1.000
    N2758    N        0.35670    0.85917    0.96957    1.000
    Si2759   Si       0.31657    0.88332    0.91777    1.000
    N2760    N        0.32731    0.84168    0.90856    1.000
    Si2761   Si       0.32409    0.87941    0.99273    1.000
    N2762    N        0.29946    0.88783    0.95791    1.000
    Si2763   Si       0.44819    0.87985    0.89897    1.000
    N2764    N        0.46201    0.88678    0.93891    1.000
    Si2765   Si       0.39424    0.86431    0.98805    1.000
    Si2766   Si       0.48952    0.86055    0.96013    1.000
    N2767    N        0.42926    0.83901    0.90580    1.000
    N2768    N        0.34292    0.91259    0.01132    1.000
    N2769    N        0.25708    0.92921    0.06389    1.000
    Si2770   Si       0.24670    0.92034    0.02317    1.000
    Si2771   Si       0.33866    0.89605    0.11914    1.000
    Si2772   Si       0.36549    0.89749    0.04885    1.000
    N2773    N        0.35657    0.93744    0.11808    1.000
    Si2774   Si       0.31385    0.94924    0.00023    1.000
    Si2775   Si       0.43291    0.89939    0.08262    1.000
    N2776    N        0.45728    0.92692    0.10465    1.000
    N2777    N        0.39718    0.91997    0.06816    1.000
    N2778    N        0.30448    0.90328    0.22535    1.000
    N2779    N        0.30083    0.91012    0.13831    1.000
    Si2780   Si       0.33483    0.93285    0.21762    1.000
    Si2781   Si       0.26269    0.90105    0.23480    1.000
    N2782    N        0.36766    0.90362    0.19336    1.000
    Si2783   Si       0.40899    0.91794    0.20089    1.000
    N2784    N        0.43355    0.90077    0.16876    1.000
    N2785    N        0.41819    0.90075    0.24101    1.000
    Si2786   Si       0.46471    0.92270    0.14607    1.000
    N2787    N        0.34581    0.92487    0.35860    1.000
    N2788    N        0.25251    0.93756    0.25634    1.000
    N2789    N        0.36502    0.94349    0.25034    1.000
    N2790    N        0.39029    0.91513    0.30762    1.000
    Si2791   Si       0.38271    0.90627    0.26745    1.000
    N2792    N        0.46265    0.91251    0.35592    1.000
    Si2793   Si       0.37333    0.94785    0.33259    1.000
    N2794    N        0.48505    0.89182    0.27704    1.000
    N2795    N        0.33725    0.89342    0.48804    1.000
    N2796    N        0.24856    0.93117    0.41783    1.000
    Si2797   Si       0.27911    0.90364    0.42425    1.000
    Si2798   Si       0.35183    0.91678    0.45276    1.000
    N2799    N        0.31942    0.92247    0.42448    1.000
    Si2800   Si       0.33267    0.94872    0.39150    1.000
    N2801    N        0.43948    0.92157    0.49169    1.000
    N2802    N        0.38723    0.89525    0.43864    1.000
    Si2803   Si       0.42759    0.91041    0.45226    1.000
    N2804    N        0.44213    0.93941    0.41906    1.000
    Si2805   Si       0.42720    0.92637    0.37787    1.000
    Si2806   Si       0.33012    0.91668    0.52510    1.000
    Si2807   Si       0.26207    0.91596    0.52653    1.000
    N2808    N        0.26792    0.92719    0.56835    1.000
    Si2809   Si       0.24869    0.90666    0.60177    1.000
    N2810    N        0.33473    0.93755    0.60066    1.000
    N2811    N        0.29476    0.93885    0.50953    1.000
    N2812    N        0.36034    0.94393    0.53578    1.000
    Si2813   Si       0.29181    0.94656    0.59846    1.000
    Si2814   Si       0.37034    0.94018    0.57856    1.000
    Si2815   Si       0.46442    0.90840    0.52846    1.000
    N2816    N        0.46039    0.92497    0.56961    1.000
    N2817    N        0.38855    0.89960    0.57879    1.000
    Si2818   Si       0.43147    0.89515    0.58141    1.000
    N2819    N        0.49242    0.94621    0.51540    1.000
    N2820    N        0.32801    0.90796    0.66662    1.000
    Si2821   Si       0.28367    0.91394    0.67009    1.000
    N2822    N        0.28422    0.93551    0.70801    1.000
    N2823    N        0.26988    0.93078    0.63280    1.000
    Si2824   Si       0.34871    0.93708    0.64280    1.000
    Si2825   Si       0.29662    0.90786    0.73929    1.000
    Si2826   Si       0.35726    0.89970    0.69759    1.000
    N2827    N        0.38152    0.93540    0.70717    1.000
    N2828    N        0.38801    0.92059    0.64252    1.000
    Si2829   Si       0.45097    0.90745    0.72521    1.000
    N2830    N        0.44892    0.92330    0.68505    1.000
    Si2831   Si       0.41095    0.93971    0.67524    1.000
    Si2832   Si       0.48171    0.94267    0.66303    1.000
    N2833    N        0.49160    0.91420    0.73971    1.000
    N2834    N        0.30014    0.93754    0.77277    1.000
    Si2835   Si       0.28440    0.93686    0.81279    1.000
    N2836    N        0.26414    0.89884    0.81838    1.000
    N2837    N        0.31757    0.94014    0.84072    1.000
    N2838    N        0.36888    0.94384    0.77918    1.000
    N2839    N        0.36987    0.90830    0.83142    1.000
    Si2840   Si       0.39955    0.91238    0.79688    1.000
    N2841    N        0.42759    0.93757    0.81889    1.000
    Si2842   Si       0.42427    0.94318    0.86037    1.000
    N2843    N        0.42735    0.92724    0.75663    1.000
    Si2844   Si       0.45534    0.94674    0.78720    1.000
    N2845    N        0.48983    0.92752    0.80690    1.000
    Si2846   Si       0.26112    0.90694    0.96340    1.000
    Si2847   Si       0.32030    0.93358    0.88315    1.000
    N2848    N        0.29012    0.90300    0.88903    1.000
    N2849    N        0.34966    0.90726    0.90021    1.000
    N2850    N        0.27427    0.93659    0.99327    1.000
    Si2851   Si       0.37193    0.93333    0.98055    1.000
    N2852    N        0.41582    0.90582    0.88516    1.000
    N2853    N        0.47632    0.92120    0.99343    1.000
    Si2854   Si       0.44439    0.91814    0.96455    1.000
    N2855    N        0.40412    0.90523    0.97573    1.000
    N2856    N        0.32676    0.98184    0.02442    1.000
    N2857    N        0.30162    0.97463    0.10683    1.000
    Si2858   Si       0.26694    0.96807    0.08364    1.000
    N2859    N        0.26514    0.00159    0.05303    1.000
    Si2860   Si       0.37238    0.99331    0.02200    1.000
    N2861    N        0.38475    0.98768    0.06194    1.000
    Si2862   Si       0.47929    0.96075    0.08737    1.000
    N2863    N        0.46365    0.00199    0.07880    1.000
    N2864    N        0.47172    0.99645    0.00387    1.000
    N2865    N        0.41054    0.98098    0.11593    1.000
    Si2866   Si       0.38651    0.95491    0.09253    1.000
    Si2867   Si       0.41719    0.01225    0.07852    1.000
    N2868    N        0.25900    0.99385    0.18541    1.000
    Si2869   Si       0.29799    0.98526    0.20149    1.000
    N2870    N        0.32083    0.95743    0.17952    1.000
    N2871    N        0.30925    0.96897    0.24145    1.000
    Si2872   Si       0.32031    0.95004    0.13765    1.000
    Si2873   Si       0.39600    0.97196    0.24112    1.000
    Si2874   Si       0.44506    0.98520    0.18705    1.000
    N2875    N        0.41208    0.96025    0.20328    1.000
    N2876    N        0.47240    0.95741    0.16963    1.000
    N2877    N        0.37417    0.01099    0.24783    1.000
    Si2878   Si       0.34036    0.98524    0.26821    1.000
    Si2879   Si       0.27559    0.97179    0.26862    1.000
    N2880    N        0.34525    0.97151    0.31043    1.000
    N2881    N        0.27574    0.96898    0.31212    1.000
    Si2882   Si       0.30888    0.98358    0.33591    1.000
    N2883    N        0.25520    0.00651    0.25444    1.000
    N2884    N        0.40456    0.95900    0.35940    1.000
    N2885    N        0.43080    0.98713    0.26277    1.000
    Si2886   Si       0.41741    0.00126    0.36870    1.000
    Si2887   Si       0.47245    0.98342    0.25071    1.000
    N2888    N        0.49016    0.00621    0.28378    1.000
    N2889    N        0.29483    0.96754    0.37727    1.000
    N2890    N        0.25161    0.99058    0.48856    1.000
    N2891    N        0.31147    0.99295    0.45962    1.000
    Si2892   Si       0.30289    0.00062    0.41675    1.000
    Si2893   Si       0.25441    0.96610    0.39305    1.000
    Si2894   Si       0.35704    0.99633    0.45176    1.000
    N2895    N        0.34643    0.98921    0.40628    1.000
    N2896    N        0.25798    0.99981    0.41954    1.000
    N2897    N        0.45295    0.98936    0.47010    1.000
    N2898    N        0.42504    0.00718    0.41069    1.000
    N2899    N        0.37082    0.95445    0.46230    1.000
    Si2900   Si       0.45479    0.98064    0.42754    1.000
    N2901    N        0.29512    0.98834    0.60264    1.000
    N2902    N        0.30565    0.00716    0.53016    1.000
    Si2903   Si       0.29388    0.98185    0.49814    1.000
    N2904    N        0.41977    0.97648    0.52473    1.000
    N2905    N        0.39978    0.96889    0.58941    1.000
    Si2906   Si       0.47583    0.96195    0.58617    1.000
    Si2907   Si       0.38223    0.96482    0.50510    1.000
    Si2908   Si       0.41052    0.00363    0.55959    1.000
    N2909    N        0.45199    0.00141    0.57886    1.000
    Si2910   Si       0.45287    0.96184    0.50279    1.000
    N2911    N        0.36367    0.00497    0.49749    1.000
    N2912    N        0.32652    0.99321    0.73735    1.000
    N2913    N        0.34740    0.97923    0.64941    1.000
    N2914    N        0.25402    0.99096    0.74203    1.000
    Si2915   Si       0.31072    0.00178    0.64137    1.000
    N2916    N        0.28761    0.00017    0.67681    1.000
    Si2917   Si       0.29007    0.98088    0.71600    1.000
    Si2918   Si       0.42733    0.98895    0.62143    1.000
    Si2919   Si       0.39442    0.95424    0.74390    1.000
    N2920    N        0.46192    0.95934    0.62920    1.000
    N2921    N        0.41255    0.98277    0.66475    1.000
    Si2922   Si       0.33236    0.96855    0.77167    1.000
    N2923    N        0.33958    0.99076    0.80933    1.000
    N2924    N        0.25582    0.97073    0.81357    1.000
    Si2925   Si       0.35815    0.95145    0.82446    1.000
    N2926    N        0.45938    0.98801    0.77333    1.000
    N2927    N        0.38628    0.96565    0.85921    1.000
    N2928    N        0.39527    0.99818    0.74971    1.000
    N2929    N        0.24748    0.98661    0.93896    1.000
    Si2930   Si       0.33647    0.98318    0.93374    1.000
    N2931    N        0.30751    0.96684    0.90534    1.000
    Si2932   Si       0.26965    0.98766    0.90136    1.000
    N2933    N        0.33706    0.95341    0.96371    1.000
    N2934    N        0.39418    0.97063    0.99096    1.000
    Si2935   Si       0.47624    0.96117    0.91468    1.000
    Si2936   Si       0.38476    0.99919    0.88332    1.000
    N2937    N        0.44302    0.95441    0.94001    1.000
    N2938    N        0.37960    0.98617    0.92434    1.000
    Si2939   Si       0.41287    0.98408    0.95081    1.000
    N2940    N        0.46682    0.95047    0.87335    1.000
    Si2941   Si       0.53746    0.04337    0.04094    1.000
    N2942    N        0.52104    0.02775    0.11633    1.000
    N2943    N        0.49666    0.04683    0.05245    1.000
    N2944    N        0.54876    0.05070    0.99869    1.000
    Si2945   Si       0.73778    0.04716    0.03310    1.000
    N2946    N        0.61762    0.05948    0.00966    1.000
    N2947    N        0.73264    0.01218    0.06154    1.000
    N2948    N        0.67180    0.04154    0.08374    1.000
    Si2949   Si       0.62708    0.01795    0.02130    1.000
    N2950    N        0.67232    0.01639    0.01984    1.000
    N2951    N        0.54020    0.01437    0.23458    1.000
    Si2952   Si       0.60049    0.01200    0.15212    1.000
    N2953    N        0.53094    0.04489    0.18212    1.000
    Si2954   Si       0.56945    0.04162    0.20584    1.000
    N2955    N        0.58540    0.05191    0.14951    1.000
    Si2956   Si       0.54124    0.05457    0.14148    1.000
    Si2957   Si       0.50552    0.03582    0.21620    1.000
    N2958    N        0.72523    0.01253    0.23878    1.000
    N2959    N        0.67394    0.05413    0.21539    1.000
    Si2960   Si       0.68220    0.02254    0.24192    1.000
    Si2961   Si       0.66830    0.03476    0.12713    1.000
    N2962    N        0.70954    0.02712    0.13763    1.000
    N2963    N        0.53850    0.05776    0.29146    1.000
    N2964    N        0.52585    0.01785    0.34568    1.000
    N2965    N        0.60774    0.02915    0.28727    1.000
    Si2966   Si       0.53241    0.01548    0.28020    1.000
    Si2967   Si       0.60715    0.05474    0.32061    1.000
    Si2968   Si       0.52193    0.06106    0.33801    1.000
    N2969    N        0.58036    0.06191    0.35458    1.000
    N2970    N        0.67553    0.02590    0.28436    1.000
    Si2971   Si       0.68673    0.04455    0.32184    1.000
    N2972    N        0.71754    0.01699    0.34048    1.000
    N2973    N        0.64696    0.05459    0.33876    1.000
    Si2974   Si       0.57826    0.05399    0.39920    1.000
    N2975    N        0.56410    0.01510    0.41336    1.000
    N2976    N        0.54597    0.05152    0.48982    1.000
    N2977    N        0.50396    0.06073    0.38348    1.000
    Si2978   Si       0.49150    0.01967    0.37548    1.000
    Si2979   Si       0.69010    0.03846    0.47691    1.000
    N2980    N        0.62100    0.05988    0.40988    1.000
    N2981    N        0.67421    0.03160    0.39211    1.000
    Si2982   Si       0.64939    0.02387    0.42898    1.000
    N2983    N        0.65429    0.05702    0.46241    1.000
    N2984    N        0.72266    0.06264    0.46651    1.000
    N2985    N        0.51150    0.04419    0.57894    1.000
    Si2986   Si       0.52882    0.01651    0.50699    1.000
    N2987    N        0.55489    0.01652    0.62060    1.000
    N2988    N        0.63674    0.05980    0.53864    1.000
    N2989    N        0.66120    0.04339    0.60463    1.000
    N2990    N        0.69112    0.02052    0.51649    1.000
    Si2991   Si       0.64871    0.01548    0.53237    1.000
    N2992    N        0.49648    0.02492    0.72989    1.000
    Si2993   Si       0.58281    0.02465    0.70878    1.000
    N2994    N        0.58713    0.05471    0.67707    1.000
    Si2995   Si       0.55837    0.05203    0.64480    1.000
    N2996    N        0.52184    0.05052    0.67034    1.000
    N2997    N        0.55955    0.04020    0.74274    1.000
    Si2998   Si       0.51871    0.01136    0.69377    1.000
    N2999    N        0.61946    0.01377    0.72520    1.000
    Si3000   Si       0.67870    0.05355    0.64361    1.000
    Si3001   Si       0.65987    0.01696    0.70994    1.000
    N3002    N        0.65547    0.04678    0.67831    1.000
    N3003    N        0.68181    0.03546    0.74277    1.000
    N3004    N        0.72071    0.04321    0.65107    1.000
    Si3005   Si       0.56049    0.03533    0.78695    1.000
    Si3006   Si       0.49988    0.03645    0.83181    1.000
    N3007    N        0.52050    0.02015    0.79721    1.000
    N3008    N        0.58461    0.01424    0.81620    1.000
    N3009    N        0.52131    0.02135    0.86667    1.000
    Si3010   Si       0.56281    0.01051    0.85926    1.000
    Si3011   Si       0.69110    0.04620    0.78441    1.000
    N3012    N        0.67428    0.04149    0.82371    1.000
    N3013    N        0.73320    0.03985    0.79091    1.000
    Si3014   Si       0.74021    0.05296    0.83234    1.000
    Si3015   Si       0.57410    0.02076    0.97067    1.000
    N3016    N        0.59124    0.02884    0.88425    1.000
    N3017    N        0.60039    0.04547    0.94799    1.000
    Si3018   Si       0.50705    0.03426    0.90732    1.000
    N3019    N        0.53814    0.05324    0.93403    1.000
    Si3020   Si       0.57635    0.05754    0.91290    1.000
    Si3021   Si       0.62956    0.01128    0.89318    1.000
    Si3022   Si       0.68504    0.05552    0.92159    1.000
    N3023    N        0.66843    0.05323    0.96154    1.000
    Si3024   Si       0.69100    0.01986    0.98082    1.000
    N3025    N        0.72839    0.05221    0.92859    1.000
    N3026    N        0.66769    0.03112    0.88780    1.000
    N3027    N        0.72832    0.03944    0.99326    1.000
    Si3028   Si       0.56650    0.10231    0.09280    1.000
    Si3029   Si       0.58100    0.08421    0.01622    1.000
    N3030    N        0.60428    0.10955    0.11530    1.000
    N3031    N        0.56482    0.07432    0.05827    1.000
    Si3032   Si       0.49232    0.10732    0.11868    1.000
    N3033    N        0.60472    0.12262    0.02878    1.000
    N3034    N        0.53397    0.09211    0.11892    1.000
    Si3035   Si       0.71474    0.12070    0.02303    1.000
    Si3036   Si       0.68610    0.08277    0.08172    1.000
    N3037    N        0.71451    0.08244    0.04655    1.000
    N3038    N        0.71190    0.08942    0.11446    1.000
    N3039    N        0.65894    0.11511    0.07916    1.000
    N3040    N        0.48866    0.12376    0.15854    1.000
    Si3041   Si       0.59214    0.11600    0.21579    1.000
    N3042    N        0.57635    0.07632    0.23016    1.000
    Si3043   Si       0.61199    0.08507    0.15029    1.000
    N3044    N        0.48989    0.06957    0.23810    1.000
    Si3045   Si       0.71971    0.11221    0.14991    1.000
    Si3046   Si       0.71945    0.10717    0.22513    1.000
    N3047    N        0.62199    0.10105    0.18876    1.000
    N3048    N        0.65126    0.06848    0.14732    1.000
    Si3049   Si       0.66187    0.08417    0.18822    1.000
    N3050    N        0.69589    0.11023    0.18534    1.000
    N3051    N        0.59822    0.09688    0.30196    1.000
    N3052    N        0.53609    0.10460    0.33650    1.000
    Si3053   Si       0.50336    0.08509    0.27854    1.000
    N3054    N        0.53503    0.11606    0.26429    1.000
    Si3055   Si       0.57841    0.10399    0.34077    1.000
    Si3056   Si       0.56667    0.08609    0.27159    1.000
    N3057    N        0.70489    0.08297    0.33073    1.000
    N3058    N        0.70620    0.10808    0.26758    1.000
    Si3059   Si       0.73283    0.09281    0.29807    1.000
    Si3060   Si       0.71243    0.09833    0.36966    1.000
    Si3061   Si       0.55880    0.08795    0.47014    1.000
    N3062    N        0.60142    0.09278    0.47796    1.000
    Si3063   Si       0.51256    0.09211    0.41246    1.000
    N3064    N        0.55639    0.08907    0.42394    1.000
    N3065    N        0.53775    0.11832    0.49410    1.000
    Si3066   Si       0.62846    0.08748    0.44468    1.000
    N3067    N        0.67220    0.10445    0.38415    1.000
    N3068    N        0.63773    0.12861    0.43513    1.000
    N3069    N        0.73668    0.07313    0.39573    1.000
    Si3070   Si       0.65217    0.06738    0.37904    1.000
    Si3071   Si       0.52342    0.08533    0.59698    1.000
    N3072    N        0.58806    0.11508    0.54309    1.000
    N3073    N        0.51925    0.11751    0.56670    1.000
    Si3074   Si       0.62047    0.09455    0.51660    1.000
    N3075    N        0.63835    0.10760    0.58820    1.000
    N3076    N        0.70023    0.09191    0.55792    1.000
    N3077    N        0.73297    0.11917    0.50677    1.000
    N3078    N        0.65551    0.12252    0.51225    1.000
    Si3079   Si       0.69532    0.12463    0.52970    1.000
    Si3080   Si       0.66166    0.07231    0.57198    1.000
    Si3081   Si       0.74004    0.08057    0.56414    1.000
    N3082    N        0.56123    0.08787    0.62058    1.000
    N3083    N        0.49487    0.09545    0.62783    1.000
    N3084    N        0.56743    0.11008    0.72902    1.000
    Si3085   Si       0.58466    0.11969    0.63637    1.000
    Si3086   Si       0.49786    0.08784    0.67120    1.000
    Si3087   Si       0.61069    0.11975    0.73960    1.000
    N3088    N        0.51164    0.12514    0.69363    1.000
    Si3089   Si       0.54332    0.07939    0.74654    1.000
    Si3090   Si       0.62477    0.07517    0.68371    1.000
    Si3091   Si       0.73143    0.08824    0.64580    1.000
    Si3092   Si       0.67776    0.07855    0.73149    1.000
    N3093    N        0.68776    0.09468    0.63979    1.000
    N3094    N        0.62327    0.10726    0.65397    1.000
    N3095    N        0.71365    0.09286    0.71091    1.000
    Si3096   Si       0.65550    0.11963    0.62608    1.000
    N3097    N        0.63704    0.09075    0.72196    1.000
    Si3098   Si       0.51182    0.10194    0.79831    1.000
    Si3099   Si       0.57590    0.11484    0.80284    1.000
    N3100    N        0.55350    0.07909    0.79252    1.000
    N3101    N        0.50106    0.08790    0.75698    1.000
    N3102    N        0.50526    0.07909    0.83584    1.000
    Si3103   Si       0.60705    0.11768    0.86698    1.000
    N3104    N        0.61393    0.11693    0.78193    1.000
    Si3105   Si       0.65100    0.10813    0.80358    1.000
    N3106    N        0.71611    0.08251    0.85147    1.000
    N3107    N        0.63834    0.09707    0.84332    1.000
    N3108    N        0.68127    0.08846    0.77609    1.000
    Si3109   Si       0.67420    0.07029    0.85853    1.000
    Si3110   Si       0.52631    0.07659    0.97028    1.000
    N3111    N        0.58551    0.09784    0.90141    1.000
    N3112    N        0.51426    0.11257    0.94695    1.000
    N3113    N        0.55063    0.11324    0.99707    1.000
    Si3114   Si       0.63151    0.06993    0.96930    1.000
    Si3115   Si       0.72436    0.11955    0.87334    1.000
    N3116    N        0.62272    0.11106    0.96034    1.000
    N3117    N        0.72716    0.10796    0.98249    1.000
    N3118    N        0.67316    0.09173    0.89946    1.000
    N3119    N        0.73737    0.12147    0.91610    1.000
    N3120    N        0.55951    0.14120    0.07558    1.000
    Si3121   Si       0.56510    0.14126    0.03265    1.000
    Si3122   Si       0.56686    0.17112    0.10750    1.000
    N3123    N        0.55822    0.17796    0.01043    1.000
    N3124    N        0.63271    0.17144    0.06616    1.000
    Si3125   Si       0.63299    0.14387    0.10327    1.000
    Si3126   Si       0.64317    0.13564    0.04366    1.000
    N3127    N        0.67277    0.13080    0.01304    1.000
    N3128    N        0.73335    0.15255    0.04946    1.000
    N3129    N        0.54454    0.17118    0.14569    1.000
    N3130    N        0.50483    0.16548    0.20942    1.000
    Si3131   Si       0.52320    0.14619    0.17567    1.000
    Si3132   Si       0.58197    0.17441    0.17143    1.000
    N3133    N        0.56371    0.13930    0.19500    1.000
    N3134    N        0.60499    0.17099    0.13213    1.000
    Si3135   Si       0.70693    0.17950    0.13433    1.000
    Si3136   Si       0.71000    0.17702    0.21487    1.000
    N3137    N        0.67506    0.16437    0.24149    1.000
    N3138    N        0.62352    0.17695    0.19263    1.000
    Si3139   Si       0.63275    0.17125    0.23477    1.000
    N3140    N        0.66681    0.16238    0.12377    1.000
    N3141    N        0.59901    0.16458    0.31766    1.000
    Si3142   Si       0.51288    0.13858    0.35162    1.000
    Si3143   Si       0.60223    0.17026    0.36309    1.000
    N3144    N        0.52481    0.17915    0.33894    1.000
    N3145    N        0.49209    0.17474    0.26934    1.000
    Si3146   Si       0.52660    0.15594    0.24926    1.000
    N3147    N        0.61307    0.13504    0.24991    1.000
    Si3148   Si       0.69349    0.14925    0.27808    1.000
    N3149    N        0.66100    0.14733    0.30742    1.000
    N3150    N        0.72900    0.16964    0.29123    1.000
    Si3151   Si       0.66604    0.17700    0.33702    1.000
    Si3152   Si       0.62247    0.13304    0.29354    1.000
    Si3153   Si       0.73702    0.17547    0.36967    1.000
    N3154    N        0.64455    0.17033    0.37460    1.000
    N3155    N        0.52077    0.13643    0.39512    1.000
    N3156    N        0.57493    0.16267    0.43047    1.000
    Si3157   Si       0.50228    0.17301    0.41142    1.000
    N3158    N        0.61105    0.17312    0.49131    1.000
    Si3159   Si       0.61491    0.16227    0.45083    1.000
    N3160    N        0.50209    0.16665    0.45617    1.000
    Si3161   Si       0.56243    0.12958    0.40733    1.000
    Si3162   Si       0.50030    0.13003    0.47890    1.000
    N3163    N        0.59171    0.12908    0.37410    1.000
    Si3164   Si       0.66251    0.14260    0.40290    1.000
    Si3165   Si       0.73074    0.17323    0.43759    1.000
    N3166    N        0.73557    0.13261    0.37383    1.000
    N3167    N        0.69323    0.17257    0.41592    1.000
    N3168    N        0.59450    0.15234    0.60950    1.000
    N3169    N        0.55288    0.17232    0.53491    1.000
    Si3170   Si       0.61067    0.13655    0.57402    1.000
    Si3171   Si       0.54753    0.12986    0.53416    1.000
    N3172    N        0.62634    0.17547    0.55271    1.000
    N3173    N        0.68955    0.16677    0.53891    1.000
    Si3174   Si       0.65014    0.16860    0.51351    1.000
    N3175    N        0.67382    0.15809    0.61347    1.000
    Si3176   Si       0.66550    0.18236    0.57666    1.000
    N3177    N        0.57074    0.15171    0.66703    1.000
    Si3178   Si       0.54976    0.14185    0.70373    1.000
    Si3179   Si       0.59167    0.18203    0.64371    1.000
    N3180    N        0.54461    0.17761    0.73251    1.000
    N3181    N        0.61742    0.16176    0.72733    1.000
    N3182    N        0.73542    0.13752    0.65281    1.000
    Si3183   Si       0.70221    0.16549    0.64391    1.000
    N3184    N        0.70260    0.15443    0.74198    1.000
    Si3185   Si       0.71809    0.13436    0.70121    1.000
    N3186    N        0.68079    0.15041    0.68178    1.000
    Si3187   Si       0.64943    0.17678    0.69851    1.000
    N3188    N        0.53641    0.13976    0.79441    1.000
    Si3189   Si       0.52035    0.16974    0.77053    1.000
    Si3190   Si       0.55988    0.17029    0.82038    1.000
    N3191    N        0.58070    0.13656    0.83896    1.000
    N3192    N        0.67958    0.14204    0.80802    1.000
    Si3193   Si       0.67702    0.16973    0.83930    1.000
    Si3194   Si       0.70420    0.12776    0.77637    1.000
    N3195    N        0.69200    0.15033    0.87442    1.000
    Si3196   Si       0.53644    0.14508    0.96714    1.000
    N3197    N        0.56751    0.16090    0.94005    1.000
    N3198    N        0.50465    0.17667    0.97646    1.000
    Si3199   Si       0.59832    0.13046    0.92941    1.000
    Si3200   Si       0.66778    0.13436    0.90602    1.000
    Si3201   Si       0.72241    0.13861    0.95188    1.000
    N3202    N        0.68118    0.14973    0.94499    1.000
    N3203    N        0.62688    0.14742    0.89658    1.000
    N3204    N        0.63092    0.17943    0.97538    1.000
    Si3205   Si       0.65200    0.13787    0.97729    1.000
    N3206    N        0.57118    0.20586    0.08260    1.000
    N3207    N        0.50835    0.22522    0.09783    1.000
    N3208    N        0.50657    0.23691    0.02255    1.000
    Si3209   Si       0.51762    0.19505    0.01402    1.000
    Si3210   Si       0.55071    0.24127    0.09488    1.000
    Si3211   Si       0.60997    0.20836    0.06429    1.000
    N3212    N        0.60862    0.22131    0.02363    1.000
    N3213    N        0.72976    0.21899    0.01320    1.000
    N3214    N        0.62955    0.23992    0.08709    1.000
    Si3215   Si       0.58235    0.21666    0.23293    1.000
    N3216    N        0.57160    0.21291    0.19015    1.000
    N3217    N        0.49447    0.23031    0.23287    1.000
    Si3218   Si       0.48900    0.24035    0.13296    1.000
    N3219    N        0.57409    0.24737    0.13109    1.000
    Si3220   Si       0.55412    0.24745    0.17015    1.000
    N3221    N        0.71733    0.22346    0.13015    1.000
    N3222    N        0.64725    0.22639    0.14965    1.000
    N3223    N        0.69204    0.18895    0.17560    1.000
    Si3224   Si       0.69012    0.23095    0.16384    1.000
    N3225    N        0.72951    0.21256    0.22812    1.000
    Si3226   Si       0.64396    0.18405    0.15361    1.000
    Si3227   Si       0.54957    0.21602    0.34328    1.000
    N3228    N        0.57751    0.23128    0.31225    1.000
    N3229    N        0.51164    0.23126    0.29974    1.000
    Si3230   Si       0.52749    0.22589    0.26061    1.000
    Si3231   Si       0.60884    0.20312    0.30081    1.000
    Si3232   Si       0.49554    0.19222    0.30798    1.000
    N3233    N        0.55275    0.18986    0.25248    1.000
    N3234    N        0.61612    0.20550    0.25799    1.000
    N3235    N        0.64516    0.21341    0.32019    1.000
    Si3236   Si       0.73303    0.20707    0.31629    1.000
    N3237    N        0.70469    0.19375    0.34668    1.000
    N3238    N        0.67993    0.24167    0.26500    1.000
    N3239    N        0.57618    0.20149    0.37717    1.000
    Si3240   Si       0.56259    0.20473    0.41973    1.000
    N3241    N        0.52003    0.21505    0.41946    1.000
    N3242    N        0.57971    0.22443    0.45295    1.000
    Si3243   Si       0.49840    0.21091    0.46044    1.000
    N3244    N        0.52244    0.22430    0.49379    1.000
    Si3245   Si       0.66196    0.20419    0.40316    1.000
    Si3246   Si       0.62291    0.21864    0.47194    1.000
    N3247    N        0.72927    0.19933    0.47227    1.000
    N3248    N        0.63772    0.19538    0.43646    1.000
    N3249    N        0.65696    0.21175    0.50231    1.000
    Si3250   Si       0.52261    0.20431    0.53455    1.000
    N3251    N        0.53890    0.22934    0.56691    1.000
    N3252    N        0.58635    0.23341    0.51885    1.000
    Si3253   Si       0.59152    0.18814    0.52624    1.000
    N3254    N        0.65924    0.22307    0.59301    1.000
    N3255    N        0.71396    0.22870    0.53198    1.000
    Si3256   Si       0.72120    0.18978    0.51615    1.000
    N3257    N        0.50805    0.22403    0.63141    1.000
    N3258    N        0.57519    0.21858    0.63370    1.000
    Si3259   Si       0.51993    0.21319    0.71361    1.000
    N3260    N        0.60154    0.22602    0.72961    1.000
    N3261    N        0.49421    0.23797    0.73780    1.000
    Si3262   Si       0.54534    0.24382    0.64879    1.000
    N3263    N        0.54567    0.24035    0.69191    1.000
    Si3264   Si       0.58727    0.18903    0.74558    1.000
    Si3265   Si       0.71026    0.19546    0.73211    1.000
    N3266    N        0.67058    0.21087    0.71755    1.000
    N3267    N        0.74064    0.19517    0.69840    1.000
    N3268    N        0.69574    0.20914    0.64894    1.000
    Si3269   Si       0.73771    0.21954    0.66147    1.000
    Si3270   Si       0.65600    0.21867    0.63863    1.000
    Si3271   Si       0.64315    0.23625    0.73949    1.000
    N3272    N        0.63111    0.19124    0.66208    1.000
    N3273    N        0.50944    0.20205    0.79886    1.000
    N3274    N        0.54654    0.20059    0.84903    1.000
    Si3275   Si       0.50396    0.20682    0.84191    1.000
    Si3276   Si       0.57101    0.23431    0.86247    1.000
    N3277    N        0.58560    0.18789    0.78870    1.000
    Si3278   Si       0.61792    0.21168    0.81115    1.000
    N3279    N        0.70471    0.20080    0.83201    1.000
    N3280    N        0.72776    0.21427    0.76646    1.000
    N3281    N        0.64384    0.22508    0.78177    1.000
    Si3282   Si       0.71042    0.24014    0.85004    1.000
    N3283    N        0.63737    0.18861    0.84334    1.000
    Si3284   Si       0.73858    0.20608    0.80762    1.000
    N3285    N        0.52365    0.22270    0.92372    1.000
    N3286    N        0.58951    0.20947    0.89632    1.000
    N3287    N        0.57918    0.22999    0.96270    1.000
    Si3288   Si       0.56412    0.20507    0.93055    1.000
    Si3289   Si       0.59400    0.19985    0.98997    1.000
    N3290    N        0.65889    0.20794    0.91063    1.000
    Si3291   Si       0.66492    0.19115    0.95123    1.000
    Si3292   Si       0.73800    0.20735    0.97160    1.000
    Si3293   Si       0.62857    0.19236    0.88580    1.000
    N3294    N        0.69892    0.21961    0.95713    1.000
    Si3295   Si       0.69144    0.23740    0.91850    1.000
    N3296    N        0.72451    0.23317    0.89013    1.000
    N3297    N        0.54579    0.27912    0.07631    1.000
    Si3298   Si       0.51471    0.28015    0.01518    1.000
    N3299    N        0.55723    0.28638    0.00719    1.000
    Si3300   Si       0.57133    0.29914    0.04555    1.000
    Si3301   Si       0.51057    0.30067    0.08598    1.000
    N3302    N        0.61294    0.28656    0.04445    1.000
    Si3303   Si       0.70601    0.25846    0.01130    1.000
    Si3304   Si       0.64986    0.27117    0.06558    1.000
    Si3305   Si       0.62766    0.25838    0.01429    1.000
    N3306    N        0.66853    0.25141    0.03087    1.000
    N3307    N        0.72570    0.28593    0.04135    1.000
    N3308    N        0.67319    0.29912    0.08786    1.000
    Si3309   Si       0.71553    0.30477    0.07980    1.000
    Si3310   Si       0.55260    0.28713    0.22876    1.000
    N3311    N        0.50906    0.29296    0.22427    1.000
    N3312    N        0.57019    0.28286    0.19038    1.000
    N3313    N        0.50880    0.24848    0.17004    1.000
    N3314    N        0.63524    0.30788    0.20507    1.000
    N3315    N        0.62169    0.29250    0.13904    1.000
    Si3316   Si       0.70874    0.25066    0.23580    1.000
    Si3317   Si       0.67722    0.29962    0.19660    1.000
    N3318    N        0.68867    0.25830    0.19861    1.000
    Si3319   Si       0.61807    0.24951    0.12778    1.000
    N3320    N        0.73314    0.28281    0.25124    1.000
    Si3321   Si       0.57857    0.26675    0.28951    1.000
    Si3322   Si       0.51402    0.27096    0.32101    1.000
    N3323    N        0.54752    0.29290    0.30495    1.000
    N3324    N        0.52736    0.25047    0.35800    1.000
    N3325    N        0.56110    0.25088    0.25039    1.000
    N3326    N        0.62155    0.27519    0.28697    1.000
    N3327    N        0.67143    0.27925    0.32527    1.000
    Si3328   Si       0.71566    0.28411    0.33222    1.000
    Si3329   Si       0.65525    0.24852    0.29875    1.000
    Si3330   Si       0.66606    0.27639    0.37002    1.000
    N3331    N        0.73780    0.24917    0.31094    1.000
    N3332    N        0.70904    0.27408    0.37415    1.000
    N3333    N        0.51149    0.28746    0.42139    1.000
    N3334    N        0.56524    0.28614    0.46900    1.000
    Si3335   Si       0.60767    0.29440    0.47680    1.000
    Si3336   Si       0.50841    0.25163    0.39696    1.000
    Si3337   Si       0.55985    0.24631    0.48608    1.000
    N3338    N        0.63947    0.30695    0.38931    1.000
    N3339    N        0.69129    0.30303    0.43089    1.000
    N3340    N        0.63323    0.26124    0.46457    1.000
    N3341    N        0.70350    0.26785    0.48419    1.000
    Si3342   Si       0.72553    0.28591    0.41077    1.000
    Si3343   Si       0.65013    0.28552    0.42755    1.000
    N3344    N        0.65751    0.24705    0.40001    1.000
    Si3345   Si       0.57095    0.25495    0.55529    1.000
    N3346    N        0.60196    0.27831    0.57735    1.000
    N3347    N        0.54613    0.28866    0.54222    1.000
    N3348    N        0.53665    0.27684    0.62026    1.000
    Si3349   Si       0.51420    0.24727    0.59716    1.000
    Si3350   Si       0.61829    0.28752    0.61666    1.000
    N3351    N        0.66184    0.27407    0.54200    1.000
    N3352    N        0.71389    0.26740    0.59268    1.000
    Si3353   Si       0.67158    0.26374    0.58348    1.000
    N3354    N        0.65630    0.30015    0.59995    1.000
    Si3355   Si       0.63094    0.30528    0.55627    1.000
    Si3356   Si       0.73703    0.25605    0.55808    1.000
    Si3357   Si       0.67893    0.24715    0.51283    1.000
    Si3358   Si       0.57613    0.25811    0.71870    1.000
    N3359    N        0.59107    0.28495    0.68972    1.000
    Si3360   Si       0.67700    0.30424    0.74183    1.000
    N3361    N        0.64878    0.27750    0.72659    1.000
    Si3362   Si       0.63593    0.27960    0.68593    1.000
    Si3363   Si       0.73280    0.28665    0.62732    1.000
    N3364    N        0.63847    0.25839    0.64754    1.000
    Si3365   Si       0.60760    0.28872    0.83195    1.000
    N3366    N        0.50248    0.27803    0.79248    1.000
    N3367    N        0.49824    0.24685    0.85902    1.000
    N3368    N        0.57058    0.28180    0.75388    1.000
    N3369    N        0.60005    0.24441    0.83112    1.000
    N3370    N        0.69874    0.28353    0.77428    1.000
    N3371    N        0.68034    0.27014    0.84870    1.000
    Si3372   Si       0.68318    0.29453    0.81167    1.000
    Si3373   Si       0.73286    0.25696    0.77203    1.000
    N3374    N        0.49350    0.28862    0.91433    1.000
    Si3375   Si       0.58165    0.27364    0.97075    1.000
    N3376    N        0.55792    0.26928    0.88601    1.000
    Si3377   Si       0.51321    0.25634    0.89739    1.000
    Si3378   Si       0.58334    0.30145    0.89866    1.000
    N3379    N        0.57669    0.30573    0.94168    1.000
    Si3380   Si       0.66274    0.29277    0.95737    1.000
    N3381    N        0.61913    0.29018    0.87534    1.000
    N3382    N        0.67272    0.27518    0.91768    1.000
    N3383    N        0.70012    0.28507    0.97902    1.000
    Si3384   Si       0.66103    0.29495    0.88140    1.000
    N3385    N        0.62633    0.27688    0.97617    1.000
    N3386    N        0.56328    0.34080    0.04936    1.000
    N3387    N        0.51065    0.34017    0.10293    1.000
    N3388    N        0.49433    0.30346    0.04499    1.000
    N3389    N        0.60635    0.34682    0.99596    1.000
    Si3390   Si       0.53947    0.36164    0.07807    1.000
    N3391    N        0.72727    0.34434    0.07070    1.000
    N3392    N        0.67637    0.36029    0.02234    1.000
    N3393    N        0.59122    0.34928    0.17270    1.000
    Si3394   Si       0.60241    0.30688    0.17488    1.000
    N3395    N        0.52047    0.36033    0.23595    1.000
    N3396    N        0.57716    0.31824    0.24810    1.000
    Si3397   Si       0.56497    0.36174    0.24456    1.000
    Si3398   Si       0.61983    0.32645    0.24483    1.000
    Si3399   Si       0.65575    0.31475    0.12449    1.000
    N3400    N        0.68491    0.31157    0.15586    1.000
    N3401    N        0.70606    0.32988    0.21256    1.000
    N3402    N        0.64263    0.35647    0.12457    1.000
    Si3403   Si       0.71401    0.34014    0.16766    1.000
    Si3404   Si       0.56501    0.33377    0.31081    1.000
    N3405    N        0.54096    0.34554    0.34553    1.000
    N3406    N        0.60861    0.33746    0.31073    1.000
    N3407    N        0.66739    0.34102    0.33184    1.000
    N3408    N        0.66086    0.32802    0.26557    1.000
    N3409    N        0.72841    0.34981    0.26948    1.000
    Si3410   Si       0.70887    0.35492    0.34431    1.000
    Si3411   Si       0.64731    0.31363    0.30603    1.000
    N3412    N        0.73654    0.32325    0.33952    1.000
    Si3413   Si       0.69123    0.35402    0.24843    1.000
    N3414    N        0.50779    0.33618    0.45704    1.000
    N3415    N        0.56713    0.33971    0.42015    1.000
    Si3416   Si       0.54166    0.31099    0.44240    1.000
    Si3417   Si       0.61446    0.34316    0.40935    1.000
    N3418    N        0.68627    0.35021    0.48147    1.000
    N3419    N        0.62666    0.32064    0.44854    1.000
    Si3420   Si       0.64523    0.35628    0.46714    1.000
    Si3421   Si       0.70372    0.31096    0.47246    1.000
    N3422    N        0.52875    0.33942    0.58758    1.000
    Si3423   Si       0.60109    0.35251    0.52656    1.000
    Si3424   Si       0.53054    0.32851    0.54431    1.000
    N3425    N        0.55738    0.35729    0.52617    1.000
    N3426    N        0.61232    0.31217    0.51522    1.000
    N3427    N        0.62770    0.34925    0.55950    1.000
    N3428    N        0.71779    0.34469    0.57920    1.000
    Si3429   Si       0.68747    0.33131    0.60838    1.000
    Si3430   Si       0.54651    0.31833    0.62434    1.000
    N3431    N        0.59076    0.31986    0.63267    1.000
    Si3432   Si       0.59850    0.32843    0.67532    1.000
    N3433    N        0.51868    0.33380    0.65666    1.000
    N3434    N        0.57957    0.36175    0.69323    1.000
    Si3435   Si       0.48981    0.34085    0.69132    1.000
    N3436    N        0.70758    0.31652    0.64339    1.000
    Si3437   Si       0.68485    0.33122    0.67837    1.000
    N3438    N        0.64279    0.32152    0.67734    1.000
    N3439    N        0.70460    0.30648    0.70966    1.000
    N3440    N        0.53196    0.33652    0.76255    1.000
    Si3441   Si       0.54738    0.33583    0.84183    1.000
    N3442    N        0.50884    0.31798    0.85326    1.000
    Si3443   Si       0.56985    0.32017    0.77628    1.000
    N3444    N        0.60127    0.34965    0.76880    1.000
    N3445    N        0.57370    0.31278    0.81903    1.000
    Si3446   Si       0.49771    0.31157    0.76441    1.000
    N3447    N        0.70431    0.32783    0.82578    1.000
    Si3448   Si       0.64287    0.34686    0.78584    1.000
    N3449    N        0.67009    0.34592    0.75195    1.000
    N3450    N        0.64123    0.30727    0.80574    1.000
    N3451    N        0.57212    0.33924    0.87822    1.000
    Si3452   Si       0.58032    0.34565    0.95927    1.000
    Si3453   Si       0.49509    0.32669    0.89411    1.000
    N3454    N        0.51873    0.36028    0.90724    1.000
    Si3455   Si       0.72626    0.32056    0.96519    1.000
    Si3456   Si       0.67912    0.35564    0.92199    1.000
    N3457    N        0.66811    0.33861    0.88327    1.000
    N3458    N        0.66218    0.33746    0.95769    1.000
    N3459    N        0.72023    0.34977    0.93211    1.000
    Si3460   Si       0.64656    0.36256    0.99116    1.000
    N3461    N        0.51208    0.38858    0.05529    1.000
    N3462    N        0.57747    0.40874    0.03856    1.000
    N3463    N        0.57064    0.37752    0.10437    1.000
    Si3464   Si       0.57775    0.36767    0.01971    1.000
    Si3465   Si       0.57540    0.41843    0.11672    1.000
    N3466    N        0.68172    0.39391    0.08365    1.000
    Si3467   Si       0.70474    0.37663    0.05036    1.000
    N3468    N        0.71036    0.41873    0.03404    1.000
    N3469    N        0.49563    0.38053    0.17910    1.000
    Si3470   Si       0.51390    0.40063    0.21459    1.000
    N3471    N        0.59991    0.40633    0.15162    1.000
    N3472    N        0.56088    0.40271    0.21730    1.000
    Si3473   Si       0.59393    0.38939    0.19357    1.000
    Si3474   Si       0.60070    0.36366    0.13317    1.000
    Si3475   Si       0.50636    0.41649    0.15366    1.000
    N3476    N        0.61020    0.36924    0.23424    1.000
    N3477    N        0.70707    0.37934    0.15383    1.000
    Si3478   Si       0.72903    0.41229    0.17063    1.000
    Si3479   Si       0.67349    0.38657    0.12485    1.000
    Si3480   Si       0.63468    0.40411    0.24301    1.000
    N3481    N        0.67765    0.39412    0.24157    1.000
    N3482    N        0.62514    0.42259    0.20324    1.000
    N3483    N        0.50751    0.40051    0.31999    1.000
    Si3484   Si       0.55045    0.41122    0.30926    1.000
    N3485    N        0.55288    0.37105    0.28730    1.000
    Si3486   Si       0.50784    0.37657    0.27834    1.000
    Si3487   Si       0.50737    0.36953    0.35324    1.000
    N3488    N        0.58394    0.41983    0.33288    1.000
    N3489    N        0.72004    0.38918    0.32181    1.000
    N3490    N        0.64739    0.40364    0.31862    1.000
    Si3491   Si       0.63293    0.36469    0.33251    1.000
    Si3492   Si       0.68840    0.42180    0.31707    1.000
    N3493    N        0.61006    0.36853    0.37026    1.000
    Si3494   Si       0.59697    0.40993    0.37314    1.000
    Si3495   Si       0.49593    0.37815    0.46521    1.000
    N3496    N        0.56786    0.41525    0.40442    1.000
    N3497    N        0.53290    0.39981    0.45344    1.000
    N3498    N        0.51330    0.38203    0.39209    1.000
    Si3499   Si       0.54749    0.37845    0.41836    1.000
    Si3500   Si       0.60909    0.41905    0.49253    1.000
    N3501    N        0.74081    0.38354    0.44976    1.000
    N3502    N        0.70096    0.37178    0.38349    1.000
    Si3503   Si       0.64172    0.42153    0.42457    1.000
    Si3504   Si       0.71292    0.38447    0.48560    1.000
    Si3505   Si       0.70281    0.41293    0.38634    1.000
    N3506    N        0.63574    0.37877    0.43081    1.000
    N3507    N        0.69026    0.41987    0.48664    1.000
    Si3508   Si       0.53020    0.38251    0.59497    1.000
    N3509    N        0.53290    0.41114    0.56250    1.000
    Si3510   Si       0.54039    0.39749    0.52104    1.000
    N3511    N        0.49917    0.38540    0.50945    1.000
    N3512    N        0.61310    0.40755    0.59009    1.000
    Si3513   Si       0.71789    0.38548    0.56185    1.000
    N3514    N        0.68016    0.41041    0.56541    1.000
    Si3515   Si       0.64849    0.38137    0.58011    1.000
    N3516    N        0.66739    0.36773    0.61721    1.000
    N3517    N        0.73728    0.38616    0.52159    1.000
    N3518    N        0.61612    0.37509    0.49359    1.000
    Si3519   Si       0.59261    0.40740    0.62834    1.000
    Si3520   Si       0.54353    0.37796    0.67506    1.000
    N3521    N        0.55501    0.38538    0.63145    1.000
    N3522    N        0.50930    0.37857    0.70290    1.000
    Si3523   Si       0.60121    0.39854    0.69676    1.000
    N3524    N        0.68584    0.41469    0.74610    1.000
    N3525    N        0.62189    0.40247    0.65930    1.000
    N3526    N        0.68316    0.37323    0.68568    1.000
    Si3527   Si       0.69230    0.37321    0.72852    1.000
    Si3528   Si       0.66400    0.39362    0.65222    1.000
    N3529    N        0.61892    0.40744    0.73443    1.000
    N3530    N        0.73468    0.37102    0.73648    1.000
    Si3531   Si       0.59432    0.39210    0.76772    1.000
    Si3532   Si       0.52642    0.37467    0.77885    1.000
    N3533    N        0.54114    0.37361    0.81992    1.000
    N3534    N        0.60069    0.40794    0.80774    1.000
    Si3535   Si       0.56168    0.41161    0.82760    1.000
    N3536    N        0.55372    0.40310    0.75884    1.000
    N3537    N        0.57276    0.40718    0.86967    1.000
    N3538    N        0.65637    0.37558    0.81720    1.000
    N3539    N        0.71850    0.38158    0.85760    1.000
    Si3540   Si       0.64128    0.41777    0.81988    1.000
    Si3541   Si       0.73366    0.42086    0.86770    1.000
    Si3542   Si       0.68133    0.35727    0.84848    1.000
    Si3543   Si       0.49936    0.39526    0.91953    1.000
    Si3544   Si       0.52916    0.40249    0.97056    1.000
    Si3545   Si       0.56066    0.37840    0.89972    1.000
    N3546    N        0.59481    0.37387    0.92902    1.000
    N3547    N        0.55089    0.36723    0.98443    1.000
    N3548    N        0.53837    0.41652    0.93045    1.000
    N3549    N        0.63634    0.40464    0.97814    1.000
    N3550    N        0.66820    0.39898    0.92197    1.000
    Si3551   Si       0.62639    0.40264    0.93549    1.000
    N3552    N        0.52421    0.46291    0.06238    1.000
    Si3553   Si       0.60192    0.44337    0.04892    1.000
    N3554    N        0.59400    0.44474    0.09139    1.000
    Si3555   Si       0.52863    0.47147    0.10534    1.000
    N3556    N        0.53317    0.43190    0.00174    1.000
    N3557    N        0.58224    0.47828    0.02946    1.000
    Si3558   Si       0.53558    0.42454    0.04365    1.000
    Si3559   Si       0.55188    0.47073    0.99769    1.000
    N3560    N        0.64286    0.44027    0.03835    1.000
    N3561    N        0.68476    0.46887    0.08820    1.000
    Si3562   Si       0.67986    0.43365    0.06299    1.000
    Si3563   Si       0.72883    0.43468    0.99988    1.000
    Si3564   Si       0.57269    0.43951    0.24282    1.000
    N3565    N        0.53896    0.43494    0.12948    1.000
    N3566    N        0.51240    0.43791    0.19091    1.000
    N3567    N        0.56671    0.47789    0.22267    1.000
    Si3568   Si       0.62845    0.43661    0.16250    1.000
    N3569    N        0.73166    0.44229    0.13788    1.000
    N3570    N        0.66635    0.42658    0.14224    1.000
    N3571    N        0.61758    0.47722    0.14844    1.000
    Si3572   Si       0.69180    0.46094    0.13104    1.000
    N3573    N        0.72220    0.44034    0.20770    1.000
    Si3574   Si       0.70457    0.48096    0.19862    1.000
    Si3575   Si       0.50330    0.45261    0.26788    1.000
    N3576    N        0.54232    0.43726    0.27329    1.000
    N3577    N        0.60904    0.42924    0.26592    1.000
    Si3578   Si       0.61742    0.43387    0.30764    1.000
    Si3579   Si       0.73308    0.46360    0.35822    1.000
    N3580    N        0.69128    0.44349    0.35433    1.000
    N3581    N        0.68799    0.44859    0.28195    1.000
    Si3582   Si       0.65260    0.46266    0.36171    1.000
    N3583    N        0.63346    0.47134    0.32412    1.000
    Si3584   Si       0.70402    0.42796    0.24850    1.000
    N3585    N        0.56058    0.47777    0.45063    1.000
    N3586    N        0.51337    0.45090    0.41277    1.000
    Si3587   Si       0.54697    0.43903    0.43706    1.000
    Si3588   Si       0.60254    0.48110    0.46013    1.000
    Si3589   Si       0.70162    0.45009    0.45633    1.000
    N3590    N        0.68465    0.43113    0.42097    1.000
    N3591    N        0.63025    0.43422    0.38488    1.000
    N3592    N        0.61877    0.44173    0.45696    1.000
    Si3593   Si       0.50842    0.44759    0.56308    1.000
    N3594    N        0.57762    0.46388    0.56087    1.000
    Si3595   Si       0.56452    0.46684    0.52135    1.000
    N3596    N        0.52083    0.46973    0.52737    1.000
    N3597    N        0.51795    0.47390    0.59640    1.000
    Si3598   Si       0.56088    0.47380    0.59965    1.000
    N3599    N        0.56798    0.42704    0.50302    1.000
    Si3600   Si       0.61638    0.44108    0.56451    1.000
    N3601    N        0.64375    0.46760    0.58580    1.000
    Si3602   Si       0.67534    0.43624    0.52516    1.000
    Si3603   Si       0.67764    0.44395    0.59919    1.000
    N3604    N        0.63179    0.43299    0.52586    1.000
    N3605    N        0.68301    0.47858    0.52782    1.000
    N3606    N        0.70761    0.47631    0.59615    1.000
    N3607    N        0.57709    0.44777    0.62702    1.000
    N3608    N        0.50973    0.44472    0.72901    1.000
    Si3609   Si       0.55221    0.43374    0.73060    1.000
    Si3610   Si       0.56548    0.46096    0.66814    1.000
    N3611    N        0.52747    0.47651    0.66374    1.000
    N3612    N        0.57765    0.46646    0.74426    1.000
    N3613    N        0.56387    0.42230    0.69028    1.000
    Si3614   Si       0.49330    0.46686    0.69211    1.000
    Si3615   Si       0.71068    0.45380    0.66032    1.000
    N3616    N        0.67928    0.43187    0.64170    1.000
    Si3617   Si       0.72237    0.43850    0.74159    1.000
    N3618    N        0.73153    0.44109    0.69894    1.000
    N3619    N        0.64728    0.47856    0.73072    1.000
    N3620    N        0.55150    0.45343    0.81564    1.000
    N3621    N        0.49414    0.47371    0.85920    1.000
    Si3622   Si       0.53583    0.47809    0.84972    1.000
    N3623    N        0.70434    0.44757    0.85250    1.000
    N3624    N        0.65143    0.45068    0.79155    1.000
    N3625    N        0.63378    0.43951    0.85754    1.000
    Si3626   Si       0.66758    0.46410    0.86670    1.000
    N3627    N        0.71861    0.47947    0.75423    1.000
    Si3628   Si       0.65045    0.43763    0.74800    1.000
    N3629    N        0.60914    0.44025    0.92205    1.000
    Si3630   Si       0.59667    0.44164    0.88077    1.000
    Si3631   Si       0.54524    0.46106    0.92318    1.000
    N3632    N        0.56208    0.47046    0.88294    1.000
    Si3633   Si       0.60724    0.47747    0.94391    1.000
    N3634    N        0.50442    0.47475    0.93190    1.000
    N3635    N        0.56630    0.47724    0.95670    1.000
    N3636    N        0.73422    0.42290    0.91218    1.000
    N3637    N        0.67863    0.46862    0.90997    1.000
    N3638    N        0.69561    0.44123    0.97385    1.000
    Si3639   Si       0.69477    0.43346    0.93065    1.000
    N3640    N        0.63573    0.47347    0.97690    1.000
    Si3641   Si       0.65602    0.43862    0.99566    1.000
    Si3642   Si       0.59686    0.51665    0.04570    1.000
    Si3643   Si       0.50085    0.49444    0.04132    1.000
    N3644    N        0.51292    0.53137    0.06324    1.000
    N3645    N        0.56085    0.50134    0.11647    1.000
    Si3646   Si       0.60030    0.48515    0.11057    1.000
    N3647    N        0.51561    0.49424    0.00130    1.000
    N3648    N        0.61559    0.53358    0.00845    1.000
    N3649    N        0.62525    0.50523    0.07893    1.000
    N3650    N        0.67439    0.51101    0.03042    1.000
    Si3651   Si       0.66866    0.50729    0.07385    1.000
    Si3652   Si       0.73410    0.53321    0.09166    1.000
    Si3653   Si       0.71294    0.53176    0.02486    1.000
    N3654    N        0.69034    0.53753    0.09659    1.000
    Si3655   Si       0.59264    0.51101    0.23601    1.000
    N3656    N        0.51780    0.50412    0.16842    1.000
    Si3657   Si       0.54342    0.53148    0.14507    1.000
    N3658    N        0.49235    0.48193    0.23757    1.000
    Si3659   Si       0.52502    0.47794    0.20329    1.000
    N3660    N        0.68073    0.48913    0.16203    1.000
    N3661    N        0.67839    0.49317    0.22942    1.000
    Si3662   Si       0.64109    0.50892    0.16756    1.000
    Si3663   Si       0.65573    0.53079    0.23520    1.000
    N3664    N        0.62224    0.52011    0.20519    1.000
    N3665    N        0.56874    0.51732    0.31315    1.000
    Si3666   Si       0.54931    0.51758    0.35222    1.000
    N3667    N        0.51079    0.49713    0.35287    1.000
    Si3668   Si       0.61128    0.50500    0.30744    1.000
    N3669    N        0.50600    0.53482    0.29449    1.000
    N3670    N        0.62570    0.50330    0.26550    1.000
    N3671    N        0.72339    0.50021    0.33555    1.000
    N3672    N        0.68356    0.52765    0.28443    1.000
    Si3673   Si       0.72589    0.52279    0.29910    1.000
    Si3674   Si       0.66791    0.48821    0.27364    1.000
    N3675    N        0.63079    0.54128    0.32187    1.000
    Si3676   Si       0.64946    0.53882    0.36097    1.000
    N3677    N        0.57850    0.50638    0.38269    1.000
    Si3678   Si       0.53828    0.51568    0.45016    1.000
    N3679    N        0.52452    0.52580    0.48885    1.000
    N3680    N        0.50892    0.52374    0.41952    1.000
    Si3681   Si       0.59733    0.53189    0.41044    1.000
    Si3682   Si       0.49772    0.48573    0.39302    1.000
    Si3683   Si       0.66483    0.51093    0.42552    1.000
    Si3684   Si       0.71484    0.52515    0.37413    1.000
    N3685    N        0.62375    0.51166    0.43726    1.000
    N3686    N        0.68444    0.49084    0.45905    1.000
    N3687    N        0.73207    0.48790    0.39645    1.000
    N3688    N        0.65615    0.50234    0.38203    1.000
    Si3689   Si       0.68383    0.50967    0.49863    1.000
    N3690    N        0.58287    0.51029    0.61039    1.000
    N3691    N        0.54235    0.53519    0.55321    1.000
    Si3692   Si       0.49537    0.50476    0.51543    1.000
    N3693    N        0.59622    0.49357    0.50104    1.000
    N3694    N        0.51888    0.53553    0.61770    1.000
    Si3695   Si       0.61519    0.53167    0.51202    1.000
    Si3696   Si       0.57837    0.53873    0.57725    1.000
    N3697    N        0.61504    0.53229    0.55578    1.000
    Si3698   Si       0.64344    0.51187    0.58042    1.000
    Si3699   Si       0.71251    0.49845    0.55433    1.000
    N3700    N        0.68339    0.52868    0.57031    1.000
    N3701    N        0.72305    0.52450    0.51640    1.000
    Si3702   Si       0.60778    0.51554    0.64525    1.000
    N3703    N        0.59891    0.48722    0.67820    1.000
    Si3704   Si       0.50317    0.49636    0.63121    1.000
    Si3705   Si       0.60612    0.49126    0.72131    1.000
    N3706    N        0.59938    0.53429    0.72713    1.000
    N3707    N        0.64655    0.51887    0.62481    1.000
    Si3708   Si       0.68107    0.50208    0.74430    1.000
    Si3709   Si       0.69159    0.51565    0.61988    1.000
    N3710    N        0.70670    0.53289    0.72798    1.000
    N3711    N        0.70243    0.49561    0.65766    1.000
    N3712    N        0.54276    0.51902    0.83670    1.000
    N3713    N        0.53010    0.50431    0.77402    1.000
    N3714    N        0.60177    0.50742    0.79078    1.000
    Si3715   Si       0.49823    0.48035    0.75632    1.000
    Si3716   Si       0.56617    0.48234    0.78434    1.000
    N3717    N        0.66603    0.52255    0.77990    1.000
    Si3718   Si       0.64170    0.49357    0.80350    1.000
    N3719    N        0.65193    0.49998    0.84561    1.000
    Si3720   Si       0.65395    0.54084    0.85794    1.000
    Si3721   Si       0.49220    0.49867    0.96466    1.000
    N3722    N        0.50011    0.54073    0.95438    1.000
    Si3723   Si       0.66324    0.50604    0.92191    1.000
    N3724    N        0.62061    0.51019    0.92035    1.000
    N3725    N        0.68216    0.53425    0.89098    1.000
    N3726    N        0.73622    0.52685    0.98806    1.000
    N3727    N        0.67636    0.52446    0.96047    1.000
    Si3728   Si       0.65017    0.51039    0.99443    1.000
    N3729    N        0.58069    0.55406    0.06300    1.000
    Si3730   Si       0.54072    0.56476    0.07765    1.000
    N3731    N        0.51388    0.59510    0.05808    1.000
    Si3732   Si       0.60183    0.59315    0.05818    1.000
    N3733    N        0.52627    0.56318    0.11938    1.000
    N3734    N        0.70680    0.57554    0.03050    1.000
    N3735    N        0.57160    0.55812    0.16795    1.000
    N3736    N        0.50486    0.58198    0.18049    1.000
    Si3737   Si       0.54907    0.59063    0.18483    1.000
    Si3738   Si       0.59646    0.58397    0.24429    1.000
    Si3739   Si       0.61205    0.57390    0.16369    1.000
    Si3740   Si       0.49057    0.57773    0.13886    1.000
    Si3741   Si       0.72077    0.57060    0.20279    1.000
    N3742    N        0.61725    0.59138    0.20309    1.000
    N3743    N        0.67975    0.56008    0.21137    1.000
    Si3744   Si       0.65520    0.59302    0.22257    1.000
    Si3745   Si       0.73048    0.59048    0.12640    1.000
    N3746    N        0.64208    0.54696    0.14653    1.000
    N3747    N        0.72323    0.55796    0.15884    1.000
    Si3748   Si       0.68165    0.55527    0.13452    1.000
    N3749    N        0.74141    0.55523    0.23707    1.000
    N3750    N        0.68687    0.59790    0.12502    1.000
    N3751    N        0.53834    0.55971    0.36456    1.000
    N3752    N        0.54969    0.58651    0.30427    1.000
    Si3753   Si       0.54886    0.54619    0.28837    1.000
    Si3754   Si       0.52277    0.59182    0.33894    1.000
    N3755    N        0.57091    0.54705    0.25112    1.000
    N3756    N        0.49511    0.58857    0.25330    1.000
    N3757    N        0.69034    0.55331    0.34934    1.000
    Si3758   Si       0.65714    0.56167    0.29600    1.000
    N3759    N        0.63769    0.56910    0.25759    1.000
    Si3760   Si       0.68898    0.59804    0.34919    1.000
    N3761    N        0.66396    0.60148    0.31356    1.000
    Si3762   Si       0.58310    0.58774    0.45123    1.000
    Si3763   Si       0.53219    0.56255    0.40617    1.000
    N3764    N        0.56552    0.54856    0.43494    1.000
    N3765    N        0.57420    0.60272    0.41002    1.000
    N3766    N        0.73778    0.60019    0.41919    1.000
    N3767    N        0.62845    0.58809    0.44633    1.000
    Si3768   Si       0.65549    0.58291    0.48094    1.000
    N3769    N        0.69217    0.54193    0.41268    1.000
    Si3770   Si       0.69556    0.58417    0.42009    1.000
    N3771    N        0.69535    0.58832    0.46255    1.000
    N3772    N        0.62164    0.56069    0.38640    1.000
    N3773    N        0.65340    0.54007    0.49693    1.000
    N3774    N        0.57465    0.57492    0.59834    1.000
    Si3775   Si       0.54620    0.55176    0.51327    1.000
    N3776    N        0.50042    0.58667    0.57768    1.000
    N3777    N        0.53125    0.59381    0.52011    1.000
    N3778    N        0.58612    0.56657    0.50023    1.000
    Si3779   Si       0.50533    0.54342    0.57585    1.000
    N3780    N        0.72860    0.58490    0.55578    1.000
    Si3781   Si       0.69590    0.56982    0.57896    1.000
    N3782    N        0.66365    0.59686    0.58106    1.000
    N3783    N        0.70848    0.55659    0.61896    1.000
    N3784    N        0.58632    0.55040    0.65937    1.000
    Si3785   Si       0.55227    0.55988    0.63264    1.000
    Si3786   Si       0.59716    0.56693    0.69730    1.000
    N3787    N        0.50785    0.56149    0.70010    1.000
    N3788    N        0.53048    0.59774    0.64283    1.000
    Si3789   Si       0.72754    0.57880    0.65200    1.000
    Si3790   Si       0.71128    0.57634    0.72706    1.000
    N3791    N        0.63431    0.59220    0.70091    1.000
    N3792    N        0.70251    0.58942    0.68719    1.000
    N3793    N        0.56885    0.56921    0.78480    1.000
    N3794    N        0.50592    0.57027    0.80208    1.000
    Si3795   Si       0.53728    0.54883    0.86556    1.000
    Si3796   Si       0.60278    0.54583    0.76993    1.000
    N3797    N        0.54176    0.59024    0.85204    1.000
    Si3798   Si       0.53704    0.54110    0.79636    1.000
    N3799    N        0.67071    0.56911    0.83091    1.000
    Si3800   Si       0.66785    0.56501    0.78847    1.000
    N3801    N        0.62914    0.57960    0.76979    1.000
    N3802    N        0.69050    0.59360    0.76135    1.000
    N3803    N        0.49887    0.54299    0.88451    1.000
    N3804    N        0.60146    0.57111    0.95085    1.000
    Si3805   Si       0.51663    0.55924    0.92093    1.000
    Si3806   Si       0.60142    0.54811    0.91334    1.000
    Si3807   Si       0.50548    0.56443    0.99123    1.000
    Si3808   Si       0.59184    0.56741    0.99312    1.000
    N3809    N        0.55675    0.54694    0.90706    1.000
    N3810    N        0.54823    0.56296    0.99499    1.000
    N3811    N        0.51656    0.60091    0.91846    1.000
    N3812    N        0.61968    0.56262    0.87570    1.000
    Si3813   Si       0.72246    0.54900    0.88369    1.000
    Si3814   Si       0.71400    0.54393    0.95586    1.000
    N3815    N        0.71088    0.58756    0.96009    1.000
    N3816    N        0.71473    0.59064    0.88145    1.000
    Si3817   Si       0.53684    0.63234    0.06342    1.000
    N3818    N        0.57132    0.61444    0.08124    1.000
    N3819    N        0.60796    0.60171    0.01409    1.000
    N3820    N        0.54453    0.65679    0.02973    1.000
    Si3821   Si       0.57825    0.63267    0.12351    1.000
    N3822    N        0.70975    0.63676    0.06478    1.000
    N3823    N        0.67561    0.62566    0.00847    1.000
    Si3824   Si       0.68067    0.60657    0.04844    1.000
    Si3825   Si       0.65108    0.61929    0.11205    1.000
    N3826    N        0.64336    0.60336    0.07183    1.000
    Si3827   Si       0.71477    0.60612    0.99884    1.000
    N3828    N        0.49636    0.63952    0.21499    1.000
    Si3829   Si       0.57855    0.64644    0.23593    1.000
    N3830    N        0.55728    0.60823    0.22476    1.000
    N3831    N        0.55213    0.62835    0.15975    1.000
    N3832    N        0.61406    0.60721    0.13401    1.000
    Si3833   Si       0.52261    0.62106    0.24806    1.000
    Si3834   Si       0.71538    0.63529    0.23909    1.000
    N3835    N        0.67205    0.63085    0.22861    1.000
    N3836    N        0.73044    0.61446    0.20458    1.000
    N3837    N        0.53281    0.63253    0.35413    1.000
    N3838    N        0.60127    0.62142    0.26835    1.000
    N3839    N        0.60194    0.63762    0.32840    1.000
    Si3840   Si       0.57040    0.62564    0.29960    1.000
    N3841    N        0.54534    0.64966    0.27339    1.000
    Si3842   Si       0.63352    0.62797    0.29804    1.000
    N3843    N        0.73411    0.60776    0.34617    1.000
    N3844    N        0.73510    0.61874    0.27339    1.000
    N3845    N        0.56991    0.62301    0.47357    1.000
    Si3846   Si       0.54019    0.62839    0.39686    1.000
    Si3847   Si       0.54486    0.65587    0.46366    1.000
    N3848    N        0.50813    0.59831    0.40915    1.000
    Si3849   Si       0.73445    0.61022    0.46306    1.000
    Si3850   Si       0.61895    0.60101    0.40553    1.000
    N3851    N        0.72936    0.65337    0.46774    1.000
    N3852    N        0.67379    0.60667    0.39092    1.000
    N3853    N        0.62012    0.64539    0.39811    1.000
    Si3854   Si       0.66505    0.64933    0.39668    1.000
    Si3855   Si       0.57956    0.61522    0.58816    1.000
    N3856    N        0.54396    0.63834    0.58877    1.000
    Si3857   Si       0.51087    0.61495    0.60768    1.000
    N3858    N        0.59466    0.62235    0.54717    1.000
    Si3859   Si       0.57312    0.60664    0.51300    1.000
    N3860    N        0.60847    0.63299    0.61681    1.000
    Si3861   Si       0.63422    0.64029    0.53601    1.000
    Si3862   Si       0.65097    0.63257    0.60462    1.000
    N3863    N        0.65268    0.61213    0.51171    1.000
    Si3864   Si       0.58435    0.63741    0.71639    1.000
    N3865    N        0.50555    0.63368    0.69917    1.000
    N3866    N        0.56725    0.59891    0.70287    1.000
    Si3867   Si       0.52773    0.59634    0.68721    1.000
    N3868    N        0.67053    0.63964    0.71683    1.000
    Si3869   Si       0.66829    0.61378    0.68198    1.000
    Si3870   Si       0.64556    0.61063    0.74106    1.000
    N3871    N        0.67563    0.63280    0.64202    1.000
    N3872    N        0.74224    0.61646    0.63182    1.000
    N3873    N        0.55242    0.64024    0.79654    1.000
    Si3874   Si       0.52827    0.60653    0.81137    1.000
    N3875    N        0.60530    0.62008    0.82668    1.000
    Si3876   Si       0.59361    0.60583    0.78566    1.000
    N3877    N        0.60844    0.63478    0.75278    1.000
    Si3878   Si       0.57989    0.65563    0.82446    1.000
    Si3879   Si       0.61594    0.60462    0.86679    1.000
    N3880    N        0.49145    0.62941    0.82188    1.000
    Si3881   Si       0.71623    0.62024    0.78403    1.000
    N3882    N        0.69712    0.63263    0.82182    1.000
    Si3883   Si       0.68544    0.60467    0.85402    1.000
    N3884    N        0.72819    0.65339    0.75794    1.000
    Si3885   Si       0.54320    0.61475    0.88686    1.000
    N3886    N        0.58532    0.61557    0.89670    1.000
    Si3887   Si       0.59755    0.61350    0.93894    1.000
    N3888    N        0.56403    0.63078    0.96058    1.000
    Si3889   Si       0.51934    0.62316    0.95402    1.000
    N3890    N        0.49242    0.60440    0.98197    1.000
    N3891    N        0.52732    0.65448    0.87828    1.000
    Si3892   Si       0.65945    0.64649    0.91789    1.000
    N3893    N        0.63538    0.63147    0.94911    1.000
    N3894    N        0.65373    0.62248    0.87955    1.000
    N3895    N        0.70259    0.64534    0.92516    1.000
    Si3896   Si       0.72153    0.60608    0.92081    1.000
    Si3897   Si       0.63517    0.63340    0.99298    1.000
    Si3898   Si       0.58015    0.68246    0.02256    1.000
    Si3899   Si       0.55882    0.69781    0.09683    1.000
    Si3900   Si       0.50804    0.67401    0.00853    1.000
    N3901    N        0.57374    0.70944    0.05673    1.000
    N3902    N        0.59070    0.67198    0.11866    1.000
    N3903    N        0.53090    0.66391    0.09519    1.000
    Si3904   Si       0.49404    0.65778    0.11829    1.000
    N3905    N        0.62114    0.67451    0.00858    1.000
    Si3906   Si       0.69955    0.67056    0.09108    1.000
    N3907    N        0.69188    0.70626    0.07026    1.000
    N3908    N        0.65894    0.66194    0.11039    1.000
    N3909    N        0.73244    0.67684    0.11794    1.000
    N3910    N        0.68728    0.71816    0.00389    1.000
    N3911    N        0.55198    0.67634    0.21127    1.000
    N3912    N        0.49881    0.67640    0.15812    1.000
    N3913    N        0.61438    0.66797    0.22344    1.000
    Si3914   Si       0.52463    0.65316    0.18452    1.000
    Si3915   Si       0.62957    0.69253    0.12415    1.000
    Si3916   Si       0.71286    0.71331    0.22516    1.000
    N3917    N        0.63386    0.70407    0.16481    1.000
    Si3918   Si       0.62060    0.70920    0.20749    1.000
    Si3919   Si       0.73372    0.69478    0.15806    1.000
    N3920    N        0.70294    0.70564    0.18450    1.000
    Si3921   Si       0.65632    0.66945    0.23996    1.000
    N3922    N        0.65671    0.71375    0.23025    1.000
    Si3923   Si       0.52480    0.68918    0.27553    1.000
    Si3924   Si       0.51151    0.66983    0.34726    1.000
    N3925    N        0.52667    0.69782    0.31847    1.000
    Si3926   Si       0.61782    0.66584    0.35614    1.000
    Si3927   Si       0.69316    0.68470    0.28882    1.000
    Si3928   Si       0.70327    0.68361    0.35699    1.000
    N3929    N        0.71990    0.67050    0.31907    1.000
    N3930    N        0.66252    0.67018    0.35643    1.000
    N3931    N        0.65359    0.66402    0.28475    1.000
    N3932    N        0.70642    0.67674    0.24887    1.000
    N3933    N        0.59436    0.69927    0.37394    1.000
    Si3934   Si       0.59206    0.67824    0.41264    1.000
    N3935    N        0.60848    0.70088    0.44764    1.000
    Si3936   Si       0.59504    0.70134    0.49067    1.000
    Si3937   Si       0.51467    0.70159    0.49210    1.000
    N3938    N        0.55130    0.66470    0.41994    1.000
    N3939    N        0.49456    0.69035    0.38143    1.000
    N3940    N        0.55532    0.68781    0.49187    1.000
    Si3941   Si       0.48984    0.70049    0.42669    1.000
    N3942    N        0.50076    0.66305    0.46698    1.000
    N3943    N        0.67203    0.67343    0.43267    1.000
    N3944    N        0.71599    0.66093    0.39176    1.000
    Si3945   Si       0.65044    0.70961    0.44345    1.000
    Si3946   Si       0.71580    0.67494    0.43341    1.000
    N3947    N        0.50879    0.69820    0.58563    1.000
    Si3948   Si       0.54734    0.68136    0.59373    1.000
    N3949    N        0.57954    0.70254    0.57168    1.000
    Si3950   Si       0.62177    0.69727    0.58107    1.000
    N3951    N        0.62459    0.67774    0.51345    1.000
    N3952    N        0.69485    0.68666    0.52855    1.000
    Si3953   Si       0.68902    0.69021    0.57202    1.000
    N3954    N        0.71964    0.66709    0.59504    1.000
    Si3955   Si       0.73043    0.67389    0.50731    1.000
    Si3956   Si       0.65642    0.70514    0.51953    1.000
    N3957    N        0.65028    0.66235    0.57480    1.000
    N3958    N        0.55576    0.66939    0.73439    1.000
    Si3959   Si       0.51897    0.67383    0.71186    1.000
    N3960    N        0.55894    0.68224    0.63881    1.000
    N3961    N        0.60450    0.66411    0.68708    1.000
    Si3962   Si       0.59951    0.66585    0.64271    1.000
    N3963    N        0.51043    0.70550    0.68207    1.000
    Si3964   Si       0.60649    0.70663    0.69948    1.000
    Si3965   Si       0.71295    0.71022    0.68013    1.000
    N3966    N        0.62371    0.69754    0.62481    1.000
    N3967    N        0.69789    0.70659    0.71933    1.000
    N3968    N        0.62234    0.70813    0.73951    1.000
    Si3969   Si       0.69066    0.66834    0.74139    1.000
    N3970    N        0.68716    0.69737    0.64624    1.000
    Si3971   Si       0.71444    0.65594    0.63654    1.000
    N3972    N        0.58397    0.68443    0.85627    1.000
    N3973    N        0.59199    0.68990    0.79708    1.000
    Si3974   Si       0.55293    0.68088    0.77568    1.000
    Si3975   Si       0.61236    0.70784    0.83577    1.000
    N3976    N        0.52437    0.71555    0.77889    1.000
    Si3977   Si       0.48891    0.65786    0.85511    1.000
    Si3978   Si       0.73854    0.68372    0.85052    1.000
    Si3979   Si       0.62173    0.67469    0.76773    1.000
    N3980    N        0.71876    0.69596    0.81232    1.000
    Si3981   Si       0.68207    0.67335    0.81364    1.000
    N3982    N        0.65425    0.69637    0.83773    1.000
    N3983    N        0.66377    0.66810    0.77463    1.000
    N3984    N        0.56359    0.70366    0.98905    1.000
    Si3985   Si       0.55467    0.68737    0.88898    1.000
    N3986    N        0.57816    0.68372    0.92526    1.000
    Si3987   Si       0.55487    0.67290    0.96016    1.000
    N3988    N        0.51282    0.66607    0.96445    1.000
    Si3989   Si       0.61456    0.70881    0.92705    1.000
    N3990    N        0.64703    0.68598    0.90542    1.000
    Si3991   Si       0.66853    0.70873    0.87646    1.000
    Si3992   Si       0.72785    0.68082    0.91907    1.000
    N3993    N        0.71053    0.69459    0.88092    1.000
    Si3994   Si       0.58725    0.74724    0.04050    1.000
    Si3995   Si       0.59854    0.76202    0.10985    1.000
    N3996    N        0.56800    0.76743    0.00680    1.000
    N3997    N        0.50422    0.71750    0.00945    1.000
    N3998    N        0.49878    0.73414    0.12162    1.000
    Si3999   Si       0.67081    0.73823    0.09182    1.000
    N4000    N        0.63005    0.74876    0.02672    1.000
    N4001    N        0.63022    0.73248    0.10327    1.000
    N4002    N        0.73307    0.75746    0.04025    1.000
    Si4003   Si       0.71591    0.71619    0.03627    1.000
    Si4004   Si       0.64278    0.71433    0.00264    1.000
    N4005    N        0.56408    0.73555    0.11755    1.000
    Si4006   Si       0.54902    0.72066    0.21524    1.000
    N4007    N        0.52627    0.73433    0.17923    1.000
    Si4008   Si       0.53266    0.75247    0.14058    1.000
    N4009    N        0.58899    0.73953    0.21273    1.000
    Si4010   Si       0.67074    0.72980    0.16779    1.000
    Si4011   Si       0.72946    0.76041    0.13676    1.000
    N4012    N        0.70790    0.75574    0.23991    1.000
    N4013    N        0.65662    0.76909    0.18437    1.000
    N4014    N        0.69037    0.74050    0.12966    1.000
    N4015    N        0.57909    0.74609    0.32024    1.000
    Si4016   Si       0.53763    0.73865    0.32430    1.000
    N4017    N        0.53952    0.72629    0.25738    1.000
    Si4018   Si       0.59579    0.73937    0.36136    1.000
    Si4019   Si       0.53056    0.76858    0.26662    1.000
    N4020    N        0.52051    0.75288    0.36379    1.000
    N4021    N        0.51394    0.77315    0.30691    1.000
    N4022    N        0.63006    0.76542    0.26613    1.000
    Si4023   Si       0.67886    0.74274    0.33578    1.000
    N4024    N        0.63784    0.74783    0.35055    1.000
    Si4025   Si       0.66962    0.74590    0.25962    1.000
    N4026    N        0.68149    0.72595    0.29617    1.000
    N4027    N        0.70279    0.72507    0.36571    1.000
    N4028    N        0.58214    0.76726    0.39054    1.000
    N4029    N        0.51201    0.72551    0.45601    1.000
    Si4030   Si       0.49022    0.76724    0.44826    1.000
    N4031    N        0.73402    0.71482    0.43144    1.000
    N4032    N        0.66074    0.72724    0.48214    1.000
    Si4033   Si       0.66537    0.76889    0.46277    1.000
    N4034    N        0.67201    0.74614    0.42564    1.000
    Si4035   Si       0.71048    0.74193    0.40422    1.000
    N4036    N        0.53258    0.74906    0.54075    1.000
    N4037    N        0.59778    0.73965    0.51325    1.000
    Si4038   Si       0.57401    0.74129    0.54912    1.000
    Si4039   Si       0.49892    0.72870    0.55709    1.000
    Si4040   Si       0.49952    0.76621    0.61500    1.000
    N4041    N        0.58392    0.77274    0.57821    1.000
    N4042    N        0.70733    0.73045    0.58257    1.000
    Si4043   Si       0.67290    0.75631    0.58225    1.000
    N4044    N        0.64946    0.72412    0.55969    1.000
    N4045    N        0.53750    0.74419    0.62698    1.000
    N4046    N        0.57578    0.73601    0.68764    1.000
    Si4047   Si       0.54629    0.71766    0.66105    1.000
    N4048    N        0.66393    0.76123    0.62531    1.000
    Si4049   Si       0.65301    0.72256    0.64304    1.000
    N4050    N        0.64293    0.72724    0.68402    1.000
    N4051    N        0.71698    0.75527    0.67823    1.000
    Si4052   Si       0.66199    0.73262    0.72869    1.000
    N4053    N        0.66213    0.77578    0.73051    1.000
    Si4054   Si       0.53039    0.75935    0.78725    1.000
    N4055    N        0.60944    0.74886    0.84696    1.000
    N4056    N        0.49013    0.76819    0.86004    1.000
    N4057    N        0.70577    0.76045    0.83589    1.000
    N4058    N        0.67597    0.73722    0.77737    1.000
    Si4059   Si       0.71355    0.73640    0.79983    1.000
    N4060    N        0.73753    0.77078    0.78379    1.000
    N4061    N        0.53079    0.72410    0.89442    1.000
    N4062    N        0.52449    0.75808    0.95410    1.000
    Si4063   Si       0.53791    0.73865    0.99125    1.000
    Si4064   Si       0.55045    0.75676    0.91569    1.000
    N4065    N        0.59429    0.74579    0.91443    1.000
    N4066    N        0.73729    0.77336    0.89596    1.000
    N4067    N        0.66254    0.75006    0.88671    1.000
    Si4068   Si       0.68726    0.73243    0.96106    1.000
    Si4069   Si       0.62190    0.76488    0.88595    1.000
    N4070    N        0.64170    0.72247    0.95996    1.000
    Si4071   Si       0.69826    0.77290    0.87694    1.000
    N4072    N        0.72187    0.71637    0.94199    1.000
    Si4073   Si       0.58653    0.82041    0.06104    1.000
    N4074    N        0.56939    0.83234    0.02126    1.000
    N4075    N        0.58446    0.77769    0.07039    1.000
    N4076    N        0.62920    0.82370    0.05500    1.000
    N4077    N        0.67934    0.80263    0.00875    1.000
    Si4078   Si       0.64896    0.78702    0.03735    1.000
    Si4079   Si       0.71826    0.79146    0.06811    1.000
    N4080    N        0.67758    0.77674    0.07147    1.000
    N4081    N        0.52654    0.79528    0.14203    1.000
    Si4082   Si       0.56203    0.82115    0.13187    1.000
    N4083    N        0.60004    0.79807    0.13685    1.000
    N4084    N        0.50961    0.82756    0.20068    1.000
    Si4085   Si       0.49303    0.80519    0.16618    1.000
    N4086    N        0.49670    0.77677    0.23930    1.000
    N4087    N        0.61062    0.81196    0.20907    1.000
    Si4088   Si       0.60119    0.77556    0.23080    1.000
    N4089    N        0.66277    0.82788    0.16589    1.000
    N4090    N        0.72187    0.78408    0.17231    1.000
    Si4091   Si       0.62829    0.79987    0.17001    1.000
    N4092    N        0.69500    0.82038    0.23093    1.000
    Si4093   Si       0.68693    0.80180    0.19129    1.000
    N4094    N        0.56874    0.79013    0.26341    1.000
    Si4095   Si       0.49937    0.79578    0.34400    1.000
    N4096    N        0.53367    0.81685    0.36550    1.000
    Si4097   Si       0.55718    0.83041    0.26800    1.000
    Si4098   Si       0.59954    0.77299    0.29393    1.000
    N4099    N        0.61575    0.80378    0.32026    1.000
    Si4100   Si       0.64185    0.79132    0.35258    1.000
    N4101    N        0.68541    0.78566    0.33807    1.000
    Si4102   Si       0.71459    0.80584    0.36267    1.000
    Si4103   Si       0.54164    0.77975    0.39044    1.000
    N4104    N        0.57883    0.82340    0.43153    1.000
    Si4105   Si       0.54452    0.81360    0.45657    1.000
    Si4106   Si       0.60540    0.79036    0.41854    1.000
    N4107    N        0.52334    0.78871    0.42935    1.000
    N4108    N        0.55800    0.79244    0.49260    1.000
    Si4109   Si       0.66659    0.83035    0.41022    1.000
    Si4110   Si       0.71539    0.80550    0.47418    1.000
    N4111    N        0.68157    0.81093    0.44474    1.000
    N4112    N        0.63500    0.80694    0.39318    1.000
    N4113    N        0.72466    0.78113    0.39487    1.000
    N4114    N        0.62062    0.77983    0.45944    1.000
    Si4115   Si       0.52363    0.78391    0.51714    1.000
    Si4116   Si       0.60249    0.81222    0.56941    1.000
    N4117    N        0.51506    0.82403    0.53758    1.000
    N4118    N        0.52434    0.80374    0.61465    1.000
    Si4119   Si       0.56207    0.77806    0.61636    1.000
    Si4120   Si       0.52622    0.82988    0.58109    1.000
    Si4121   Si       0.60215    0.78049    0.49760    1.000
    N4122    N        0.74142    0.82837    0.57344    1.000
    N4123    N        0.62009    0.80466    0.53032    1.000
    N4124    N        0.73068    0.82881    0.50560    1.000
    N4125    N        0.68741    0.79530    0.56471    1.000
    Si4126   Si       0.66345    0.80865    0.52975    1.000
    N4127    N        0.62910    0.81963    0.60136    1.000
    Si4128   Si       0.70247    0.82336    0.59434    1.000
    Si4129   Si       0.72901    0.80019    0.54107    1.000
    N4130    N        0.68599    0.78417    0.49955    1.000
    Si4131   Si       0.52212    0.82065    0.65560    1.000
    N4132    N        0.53935    0.79490    0.68401    1.000
    N4133    N        0.60283    0.80046    0.71620    1.000
    Si4134   Si       0.52676    0.81098    0.72354    1.000
    N4135    N        0.59223    0.78743    0.64618    1.000
    Si4136   Si       0.57837    0.77968    0.68551    1.000
    Si4137   Si       0.63367    0.79341    0.63565    1.000
    Si4138   Si       0.64648    0.80930    0.70789    1.000
    N4139    N        0.72632    0.81912    0.72471    1.000
    N4140    N        0.65851    0.80735    0.66803    1.000
    N4141    N        0.71992    0.80537    0.63004    1.000
    Si4142   Si       0.69188    0.78067    0.65451    1.000
    Si4143   Si       0.52885    0.79228    0.85144    1.000
    Si4144   Si       0.58554    0.79659    0.75664    1.000
    Si4145   Si       0.59795    0.78236    0.82170    1.000
    N4146    N        0.54580    0.78238    0.75216    1.000
    N4147    N        0.49230    0.78055    0.79462    1.000
    N4148    N        0.61293    0.77358    0.78178    1.000
    N4149    N        0.55377    0.77841    0.82121    1.000
    N4150    N        0.61929    0.81687    0.83269    1.000
    Si4151   Si       0.71616    0.79544    0.81244    1.000
    N4152    N        0.68305    0.80766    0.78710    1.000
    Si4153   Si       0.64472    0.82730    0.86720    1.000
    Si4154   Si       0.65435    0.77621    0.77318    1.000
    N4155    N        0.68804    0.81428    0.87237    1.000
    Si4156   Si       0.69500    0.83265    0.75384    1.000
    N4157    N        0.54337    0.79482    0.89445    1.000
    N4158    N        0.56844    0.82281    0.95142    1.000
    N4159    N        0.49702    0.82235    0.94246    1.000
    Si4160   Si       0.58133    0.80502    0.98874    1.000
    Si4161   Si       0.53623    0.82858    0.92132    1.000
    Si4162   Si       0.60993    0.82680    0.93582    1.000
    Si4163   Si       0.72925    0.79067    0.93652    1.000
    N4164    N        0.62212    0.80615    0.89830    1.000
    Si4165   Si       0.66691    0.80567    0.96804    1.000
    N4166    N        0.62366    0.80535    0.97233    1.000
    N4167    N        0.68868    0.77487    0.94679    1.000
    Si4168   Si       0.52550    0.85669    0.07381    1.000
    N4169    N        0.52450    0.88315    0.03647    1.000
    Si4170   Si       0.55334    0.87051    0.00373    1.000
    N4171    N        0.60961    0.88841    0.07215    1.000
    N4172    N        0.56049    0.83499    0.09041    1.000
    N4173    N        0.59122    0.89265    0.99764    1.000
    Si4174   Si       0.71695    0.86480    0.09420    1.000
    Si4175   Si       0.69633    0.84155    0.02260    1.000
    N4176    N        0.67447    0.86248    0.09984    1.000
    N4177    N        0.66533    0.87427    0.03008    1.000
    Si4178   Si       0.64527    0.86352    0.06723    1.000
    N4179    N        0.72937    0.85647    0.99834    1.000
    N4180    N        0.71759    0.83586    0.06066    1.000
    N4181    N        0.55216    0.85675    0.15696    1.000
    Si4182   Si       0.61092    0.85029    0.22658    1.000
    N4183    N        0.56767    0.85590    0.23323    1.000
    Si4184   Si       0.53830    0.85947    0.19866    1.000
    Si4185   Si       0.53934    0.89080    0.13650    1.000
    Si4186   Si       0.72996    0.85165    0.23167    1.000
    Si4187   Si       0.66297    0.86321    0.14236    1.000
    N4188    N        0.62218    0.88418    0.14203    1.000
    N4189    N        0.57755    0.85388    0.29864    1.000
    N4190    N        0.52677    0.88095    0.33115    1.000
    Si4191   Si       0.50063    0.85978    0.30206    1.000
    Si4192   Si       0.54459    0.85973    0.37087    1.000
    N4193    N        0.51490    0.83483    0.27015    1.000
    Si4194   Si       0.61813    0.84542    0.30472    1.000
    N4195    N        0.69325    0.84700    0.30200    1.000
    N4196    N        0.63806    0.86666    0.33719    1.000
    Si4197   Si       0.68100    0.86441    0.33966    1.000
    Si4198   Si       0.67575    0.84595    0.26193    1.000
    N4199    N        0.63459    0.84730    0.26336    1.000
    Si4200   Si       0.73641    0.83640    0.30624    1.000
    N4201    N        0.69705    0.87996    0.24466    1.000
    Si4202   Si       0.49025    0.87928    0.46916    1.000
    N4203    N        0.58550    0.86868    0.38178    1.000
    N4204    N        0.51952    0.84691    0.47036    1.000
    Si4205   Si       0.59732    0.86054    0.42367    1.000
    N4206    N        0.52422    0.89112    0.39432    1.000
    N4207    N        0.69017    0.84137    0.37506    1.000
    N4208    N        0.64299    0.86382    0.42951    1.000
    N4209    N        0.69787    0.88091    0.47281    1.000
    Si4210   Si       0.52942    0.85697    0.51275    1.000
    Si4211   Si       0.57155    0.87112    0.61382    1.000
    N4212    N        0.56490    0.88054    0.51830    1.000
    N4213    N        0.56977    0.83761    0.58182    1.000
    N4214    N        0.48992    0.85306    0.58657    1.000
    N4215    N        0.61964    0.87814    0.56456    1.000
    N4216    N        0.67247    0.85058    0.52936    1.000
    Si4217   Si       0.71097    0.86576    0.51141    1.000
    N4218    N        0.68078    0.85757    0.60777    1.000
    Si4219   Si       0.63769    0.86300    0.60388    1.000
    Si4220   Si       0.64744    0.88691    0.53168    1.000
    N4221    N        0.60220    0.88021    0.73036    1.000
    N4222    N        0.54978    0.85618    0.64877    1.000
    N4223    N        0.53652    0.85505    0.71985    1.000
    N4224    N        0.60901    0.88424    0.62847    1.000
    N4225    N        0.65838    0.84165    0.73218    1.000
    N4226    N        0.58123    0.86948    0.84859    1.000
    Si4227   Si       0.60075    0.85064    0.81350    1.000
    Si4228   Si       0.53738    0.87033    0.86017    1.000
    Si4229   Si       0.56471    0.86843    0.75027    1.000
    N4230    N        0.57840    0.83519    0.77783    1.000
    N4231    N        0.51855    0.83423    0.84467    1.000
    N4232    N        0.70142    0.87586    0.82678    1.000
    N4233    N        0.63499    0.87055    0.79245    1.000
    Si4234   Si       0.71310    0.84827    0.85852    1.000
    N4235    N        0.71897    0.87192    0.75922    1.000
    N4236    N        0.64559    0.86965    0.86448    1.000
    Si4237   Si       0.65932    0.88574    0.82631    1.000
    Si4238   Si       0.63890    0.87675    0.74999    1.000
    Si4239   Si       0.72899    0.89320    0.79850    1.000
    Si4240   Si       0.60743    0.88182    0.88353    1.000
    N4241    N        0.54006    0.86957    0.90541    1.000
    N4242    N        0.53061    0.87725    0.96937    1.000
    N4243    N        0.60988    0.86999    0.92614    1.000
    N4244    N        0.67504    0.84636    0.95682    1.000
    Si4245   Si       0.71455    0.86391    0.95784    1.000
    N4246    N        0.72720    0.87809    0.88660    1.000
    N4247    N        0.73889    0.83334    0.93577    1.000
    Si4248   Si       0.59869    0.91178    0.03657    1.000
    Si4249   Si       0.53047    0.92296    0.06487    1.000
    N4250    N        0.56775    0.94139    0.04732    1.000
    Si4251   Si       0.60617    0.90793    0.11134    1.000
    N4252    N        0.49479    0.94472    0.05052    1.000
    N4253    N        0.52625    0.89255    0.09701    1.000
    Si4254   Si       0.66451    0.91074    0.00717    1.000
    N4255    N        0.72236    0.90789    0.08840    1.000
    N4256    N        0.70530    0.92536    0.01423    1.000
    N4257    N        0.63641    0.93469    0.03045    1.000
    Si4258   Si       0.71521    0.93636    0.05530    1.000
    N4259    N        0.63242    0.94477    0.10591    1.000
    N4260    N        0.57088    0.92141    0.13313    1.000
    Si4261   Si       0.57331    0.90491    0.23259    1.000
    N4262    N        0.50312    0.90507    0.15777    1.000
    Si4263   Si       0.50422    0.93534    0.19154    1.000
    N4264    N        0.53167    0.90256    0.21510    1.000
    N4265    N        0.49462    0.94912    0.23600    1.000
    N4266    N        0.61117    0.89219    0.21460    1.000
    Si4267   Si       0.70430    0.92371    0.17659    1.000
    Si4268   Si       0.72067    0.91505    0.24761    1.000
    N4269    N        0.71335    0.94088    0.21438    1.000
    Si4270   Si       0.63173    0.90568    0.18016    1.000
    N4271    N        0.62974    0.95003    0.17852    1.000
    N4272    N        0.67308    0.89370    0.17469    1.000
    N4273    N        0.55479    0.91442    0.27194    1.000
    N4274    N        0.59301    0.91761    0.32936    1.000
    Si4275   Si       0.50463    0.90925    0.35749    1.000
    Si4276   Si       0.51423    0.91569    0.25353    1.000
    N4277    N        0.52326    0.94666    0.34963    1.000
    Si4278   Si       0.56209    0.89396    0.30897    1.000
    Si4279   Si       0.61375    0.89281    0.36013    1.000
    N4280    N        0.69581    0.90498    0.34610    1.000
    N4281    N        0.71873    0.93266    0.28644    1.000
    Si4282   Si       0.73076    0.91435    0.32269    1.000
    N4283    N        0.57635    0.89076    0.44613    1.000
    Si4284   Si       0.54303    0.91379    0.42570    1.000
    N4285    N        0.51367    0.91512    0.45856    1.000
    Si4286   Si       0.58451    0.90312    0.48712    1.000
    Si4287   Si       0.52527    0.94613    0.48558    1.000
    N4288    N        0.56840    0.94209    0.49633    1.000
    N4289    N        0.66551    0.92489    0.43919    1.000
    Si4290   Si       0.70692    0.91321    0.44678    1.000
    N4291    N        0.62961    0.92991    0.37862    1.000
    N4292    N        0.72855    0.90302    0.41065    1.000
    N4293    N        0.72853    0.94805    0.46253    1.000
    N4294    N        0.62716    0.89604    0.49346    1.000
    Si4295   Si       0.71392    0.92956    0.37937    1.000
    Si4296   Si       0.65482    0.88813    0.46003    1.000
    Si4297   Si       0.53460    0.93252    0.61840    1.000
    N4298    N        0.55276    0.90158    0.59098    1.000
    Si4299   Si       0.58050    0.89952    0.55583    1.000
    N4300    N        0.59636    0.94043    0.55443    1.000
    Si4301   Si       0.70743    0.93010    0.55335    1.000
    N4302    N        0.66497    0.92311    0.54553    1.000
    N4303    N        0.71362    0.92281    0.59536    1.000
    N4304    N        0.64505    0.93590    0.61200    1.000
    Si4305   Si       0.63817    0.94618    0.56997    1.000
    N4306    N        0.73070    0.89534    0.53724    1.000
    Si4307   Si       0.53164    0.88482    0.67950    1.000
    N4308    N        0.55065    0.91692    0.70289    1.000
    Si4309   Si       0.59417    0.92016    0.71272    1.000
    N4310    N        0.51147    0.91247    0.65026    1.000
    Si4311   Si       0.52014    0.94303    0.72023    1.000
    N4312    N        0.57095    0.94454    0.63658    1.000
    Si4313   Si       0.61054    0.92665    0.63824    1.000
    N4314    N        0.59635    0.94928    0.74553    1.000
    N4315    N        0.66339    0.90979    0.73458    1.000
    N4316    N        0.62311    0.93062    0.68093    1.000
    Si4317   Si       0.66563    0.93427    0.69697    1.000
    N4318    N        0.69065    0.91788    0.66517    1.000
    Si4319   Si       0.68555    0.93913    0.62650    1.000
    Si4320   Si       0.73271    0.91460    0.67847    1.000
    N4321    N        0.72558    0.93393    0.71639    1.000
    N4322    N        0.53244    0.91285    0.85281    1.000
    Si4323   Si       0.56988    0.93526    0.85186    1.000
    N4324    N        0.55007    0.89987    0.77517    1.000
    Si4325   Si       0.56428    0.94197    0.77506    1.000
    Si4326   Si       0.50468    0.89863    0.77721    1.000
    N4327    N        0.58437    0.94914    0.81363    1.000
    Si4328   Si       0.49009    0.92106    0.84901    1.000
    N4329    N        0.70962    0.93176    0.78453    1.000
    N4330    N        0.65949    0.92838    0.83071    1.000
    Si4331   Si       0.70461    0.91154    0.74625    1.000
    N4332    N        0.60702    0.92456    0.87452    1.000
    Si4333   Si       0.53774    0.90383    0.93491    1.000
    N4334    N        0.51160    0.93815    0.93208    1.000
    N4335    N        0.57690    0.92468    0.93919    1.000
    Si4336   Si       0.60833    0.89965    0.96023    1.000
    N4337    N        0.67715    0.93485    0.90221    1.000
    Si4338   Si       0.64524    0.94417    0.87039    1.000
    N4339    N        0.72162    0.90506    0.94622    1.000
    Si4340   Si       0.73627    0.92803    0.98242    1.000
    Si4341   Si       0.71679    0.91907    0.90329    1.000
    N4342    N        0.64649    0.92119    0.96641    1.000
    Si4343   Si       0.56113    0.97701    0.02397    1.000
    N4344    N        0.52069    0.95998    0.10769    1.000
    Si4345   Si       0.54376    0.99600    0.09671    1.000
    N4346    N        0.59352    0.99591    0.00150    1.000
    N4347    N        0.54690    0.00349    0.05514    1.000
    Si4348   Si       0.49147    0.95753    0.01123    1.000
    N4349    N        0.62222    0.99839    0.05938    1.000
    N4350    N        0.68547    0.96689    0.06764    1.000
    Si4351   Si       0.64173    0.95859    0.06700    1.000
    Si4352   Si       0.68856    0.00949    0.05968    1.000
    N4353    N        0.57428    0.99068    0.12720    1.000
    N4354    N        0.53718    0.96290    0.18190    1.000
    Si4355   Si       0.55893    0.98032    0.21233    1.000
    Si4356   Si       0.54942    0.95678    0.14134    1.000
    N4357    N        0.58566    0.95309    0.23221    1.000
    N4358    N        0.59241    0.00507    0.19567    1.000
    Si4359   Si       0.61999    0.97466    0.21362    1.000
    N4360    N        0.69226    0.95710    0.14748    1.000
    N4361    N        0.64935    0.99276    0.23772    1.000
    Si4362   Si       0.65050    0.96297    0.14180    1.000
    Si4363   Si       0.72190    0.98644    0.14529    1.000
    N4364    N        0.64033    0.00423    0.13923    1.000
    Si4365   Si       0.73686    0.97645    0.22024    1.000
    N4366    N        0.58597    0.97750    0.35621    1.000
    N4367    N        0.55248    0.98036    0.29477    1.000
    Si4368   Si       0.54642    0.98137    0.33715    1.000
    Si4369   Si       0.58011    0.95217    0.27802    1.000
    N4370    N        0.61955    0.96392    0.29321    1.000
    Si4371   Si       0.62070    0.95503    0.33956    1.000
    N4372    N        0.65724    0.97991    0.34259    1.000
    Si4373   Si       0.68745    0.99772    0.36869    1.000
    Si4374   Si       0.63887    0.00076    0.28216    1.000
    N4375    N        0.52760    0.98638    0.47247    1.000
    Si4376   Si       0.58667    0.98080    0.39939    1.000
    Si4377   Si       0.53182    0.98974    0.42969    1.000
    N4378    N        0.55609    0.95308    0.41559    1.000
    N4379    N        0.49294    0.99327    0.41129    1.000
    N4380    N        0.68391    0.00442    0.45187    1.000
    Si4381   Si       0.65224    0.95114    0.40809    1.000
    Si4382   Si       0.71565    0.98125    0.43475    1.000
    N4383    N        0.69368    0.96495    0.39669    1.000
    N4384    N        0.62571    0.98592    0.41675    1.000
    N4385    N        0.51870    0.96581    0.59355    1.000
    Si4386   Si       0.58277    0.97038    0.52622    1.000
    N4387    N        0.55015    0.99746    0.53901    1.000
    Si4388   Si       0.53687    0.00681    0.58188    1.000
    N4389    N        0.61491    0.99548    0.51160    1.000
    N4390    N        0.64598    0.98886    0.56825    1.000
    N4391    N        0.72948    0.96809    0.54977    1.000
    Si4392   Si       0.65096    0.00086    0.60998    1.000
    Si4393   Si       0.73108    0.00704    0.53367    1.000
    N4394    N        0.50023    0.97053    0.69024    1.000
    N4395    N        0.55931    0.99548    0.68750    1.000
    Si4396   Si       0.57650    0.98734    0.64704    1.000
    Si4397   Si       0.72298    0.00028    0.64100    1.000
    N4398    N        0.74046    0.99220    0.68043    1.000
    N4399    N        0.66431    0.97412    0.71609    1.000
    N4400    N        0.68791    0.98238    0.62687    1.000
    N4401    N        0.61765    0.99558    0.63611    1.000
    Si4402   Si       0.50269    0.99802    0.76422    1.000
    N4403    N        0.53144    0.96541    0.75584    1.000
    Si4404   Si       0.61483    0.98298    0.81700    1.000
    N4405    N        0.63710    0.98453    0.85540    1.000
    N4406    N        0.70033    0.97838    0.83491    1.000
    N4407    N        0.64625    0.97905    0.78661    1.000
    Si4408   Si       0.67929    0.95497    0.80455    1.000
    Si4409   Si       0.67348    0.00827    0.85072    1.000
    Si4410   Si       0.73757    0.97994    0.85480    1.000
    Si4411   Si       0.63128    0.97526    0.74651    1.000
    N4412    N        0.56269    0.97108    0.87708    1.000
    N4413    N        0.56230    0.98993    0.93999    1.000
    Si4414   Si       0.52612    0.97383    0.95226    1.000
    N4415    N        0.49420    0.99928    0.93501    1.000
    Si4416   Si       0.58323    0.96167    0.91432    1.000
    N4417    N        0.53028    0.96770    0.99393    1.000
    Si4418   Si       0.65740    0.95435    0.93893    1.000
    N4419    N        0.68019    0.98519    0.96028    1.000
    N4420    N        0.62650    0.97581    0.91744    1.000
    N4421    N        0.77507    0.04314    0.10294    1.000
    N4422    N        0.83625    0.05384    0.08685    1.000
    Si4423   Si       0.81284    0.02237    0.10830    1.000
    Si4424   Si       0.85694    0.04266    0.04921    1.000
    N4425    N        0.78146    0.05290    0.03253    1.000
    N4426    N        0.84371    0.06789    0.01562    1.000
    Si4427   Si       0.80659    0.04916    0.99740    1.000
    Si4428   Si       0.79570    0.06691    0.07203    1.000
    N4429    N        0.89994    0.04069    0.04453    1.000
    N4430    N        0.93196    0.03262    0.12148    1.000
    N4431    N        0.81252    0.05613    0.19228    1.000
    Si4432   Si       0.83652    0.04828    0.23369    1.000
    Si4433   Si       0.83956    0.02816    0.17294    1.000
    Si4434   Si       0.74041    0.05656    0.12568    1.000
    N4435    N        0.85424    0.01537    0.21171    1.000
    Si4436   Si       0.75487    0.04090    0.24672    1.000
    Si4437   Si       0.90970    0.03103    0.15700    1.000
    Si4438   Si       0.94086    0.02716    0.22265    1.000
    N4439    N        0.92072    0.05410    0.19400    1.000
    N4440    N        0.86900    0.04346    0.14699    1.000
    N4441    N        0.78807    0.05168    0.34130    1.000
    Si4442   Si       0.81878    0.02592    0.35732    1.000
    Si4443   Si       0.75596    0.02797    0.32058    1.000
    N4444    N        0.85374    0.05265    0.27489    1.000
    N4445    N        0.74739    0.05397    0.28757    1.000
    N4446    N        0.79589    0.02567    0.25167    1.000
    Si4447   Si       0.87591    0.02765    0.30223    1.000
    Si4448   Si       0.92892    0.03735    0.33959    1.000
    N4449    N        0.96339    0.05611    0.32080    1.000
    Si4450   Si       0.98561    0.05091    0.25627    1.000
    N4451    N        0.94285    0.06295    0.25327    1.000
    N4452    N        0.89704    0.06428    0.31851    1.000
    N4453    N        0.84810    0.04809    0.37964    1.000
    Si4454   Si       0.81227    0.06241    0.45948    1.000
    N4455    N        0.80958    0.02043    0.44957    1.000
    Si4456   Si       0.74495    0.05048    0.43080    1.000
    Si4457   Si       0.80680    0.01017    0.49251    1.000
    N4458    N        0.92125    0.01100    0.49733    1.000
    N4459    N        0.97428    0.04545    0.40579    1.000
    N4460    N        0.89039    0.02892    0.43887    1.000
    Si4461   Si       0.87903    0.02376    0.39786    1.000
    N4462    N        0.90998    0.05046    0.37818    1.000
    Si4463   Si       0.96561    0.00499    0.39748    1.000
    N4464    N        0.80868    0.05618    0.59427    1.000
    Si4465   Si       0.77857    0.02086    0.58725    1.000
    Si4466   Si       0.85223    0.05926    0.58207    1.000
    N4467    N        0.74618    0.03718    0.56117    1.000
    N4468    N        0.80730    0.05505    0.50338    1.000
    N4469    N        0.86366    0.01799    0.56832    1.000
    Si4470   Si       0.92752    0.04909    0.51674    1.000
    N4471    N        0.92512    0.04835    0.56064    1.000
    N4472    N        0.88423    0.06661    0.60934    1.000
    N4473    N        0.96657    0.06402    0.50497    1.000
    Si4474   Si       0.90501    0.01057    0.57604    1.000
    N4475    N        0.91546    0.00864    0.61749    1.000
    N4476    N        0.75611    0.04348    0.72331    1.000
    N4477    N        0.84743    0.05056    0.71538    1.000
    Si4478   Si       0.75926    0.03504    0.67923    1.000
    N4479    N        0.79823    0.01300    0.67446    1.000
    Si4480   Si       0.83603    0.01370    0.69430    1.000
    N4481    N        0.97398    0.03729    0.66661    1.000
    Si4482   Si       0.88726    0.03655    0.63983    1.000
    Si4483   Si       0.93731    0.03670    0.69035    1.000
    N4484    N        0.90143    0.05677    0.67428    1.000
    N4485    N        0.94696    0.05383    0.72878    1.000
    N4486    N        0.83261    0.02476    0.83423    1.000
    N4487    N        0.80653    0.02295    0.76720    1.000
    Si4488   Si       0.75934    0.02369    0.76141    1.000
    Si4489   Si       0.81435    0.06020    0.85646    1.000
    Si4490   Si       0.82677    0.06068    0.75232    1.000
    Si4491   Si       0.86547    0.03997    0.80687    1.000
    N4492    N        0.74061    0.02315    0.86507    1.000
    Si4493   Si       0.91327    0.01723    0.85571    1.000
    N4494    N        0.96228    0.04573    0.79638    1.000
    N4495    N        0.90039    0.04930    0.82933    1.000
    Si4496   Si       0.96418    0.02548    0.75789    1.000
    N4497    N        0.95209    0.03188    0.86956    1.000
    N4498    N        0.87425    0.00762    0.77799    1.000
    N4499    N        0.79299    0.05943    0.89524    1.000
    Si4500   Si       0.75916    0.03333    0.90259    1.000
    N4501    N        0.84722    0.06070    0.93460    1.000
    N4502    N        0.98184    0.01154    0.96979    1.000
    N4503    N        0.90893    0.02378    0.95147    1.000
    N4504    N        0.88618    0.01750    0.88888    1.000
    Si4505   Si       0.88724    0.04591    0.92098    1.000
    Si4506   Si       0.94200    0.02059    0.98184    1.000
    N4507    N        0.95355    0.05605    0.00165    1.000
    N4508    N        0.78426    0.10908    0.07956    1.000
    Si4509   Si       0.85683    0.11025    0.01414    1.000
    Si4510   Si       0.86183    0.07669    0.11922    1.000
    N4511    N        0.89939    0.08931    0.10242    1.000
    N4512    N        0.89945    0.10834    0.03183    1.000
    Si4513   Si       0.92755    0.07471    0.03341    1.000
    Si4514   Si       0.89404    0.12446    0.07489    1.000
    N4515    N        0.95553    0.07254    0.06547    1.000
    Si4516   Si       0.93909    0.07042    0.10637    1.000
    N4517    N        0.75028    0.07810    0.22361    1.000
    Si4518   Si       0.77984    0.08481    0.19124    1.000
    N4519    N        0.80055    0.11921    0.20589    1.000
    N4520    N        0.84850    0.10684    0.14878    1.000
    Si4521   Si       0.84077    0.11380    0.19242    1.000
    N4522    N        0.75483    0.08460    0.15622    1.000
    N4523    N        0.86325    0.08837    0.21841    1.000
    N4524    N        0.91853    0.12177    0.19840    1.000
    Si4525   Si       0.90884    0.08946    0.22526    1.000
    Si4526   Si       0.95216    0.11736    0.17016    1.000
    N4527    N        0.96249    0.09234    0.13570    1.000
    N4528    N        0.98408    0.11417    0.19939    1.000
    Si4529   Si       0.79867    0.09574    0.34131    1.000
    N4530    N        0.76961    0.11398    0.31404    1.000
    N4531    N        0.84081    0.09311    0.32662    1.000
    Si4532   Si       0.86900    0.09040    0.29218    1.000
    Si4533   Si       0.87337    0.07648    0.35703    1.000
    N4534    N        0.90170    0.10624    0.26940    1.000
    Si4535   Si       0.93482    0.08139    0.29330    1.000
    N4536    N        0.94572    0.11785    0.31183    1.000
    Si4537   Si       0.96538    0.12598    0.34904    1.000
    Si4538   Si       0.74593    0.10088    0.47018    1.000
    N4539    N        0.80041    0.11084    0.38084    1.000
    N4540    N        0.84885    0.08540    0.45767    1.000
    Si4541   Si       0.76229    0.11032    0.40593    1.000
    N4542    N        0.77708    0.07984    0.44311    1.000
    N4543    N        0.80154    0.12355    0.49854    1.000
    N4544    N        0.92625    0.08468    0.44289    1.000
    Si4545   Si       0.93947    0.07028    0.40382    1.000
    N4546    N        0.87343    0.11310    0.38301    1.000
    N4547    N        0.94246    0.10756    0.38087    1.000
    Si4548   Si       0.95710    0.09119    0.47239    1.000
    Si4549   Si       0.88761    0.06698    0.45664    1.000
    N4550    N        0.77816    0.10105    0.55316    1.000
    N4551    N        0.84866    0.08918    0.54937    1.000
    N4552    N        0.74800    0.08907    0.60586    1.000
    Si4553   Si       0.81129    0.09006    0.52698    1.000
    Si4554   Si       0.79180    0.09663    0.59620    1.000
    Si4555   Si       0.88149    0.10654    0.52778    1.000
    N4556    N        0.91437    0.11335    0.55590    1.000
    Si4557   Si       0.92248    0.08253    0.58943    1.000
    N4558    N        0.95650    0.08965    0.61717    1.000
    N4559    N        0.89766    0.07508    0.50095    1.000
    N4560    N        0.98493    0.11036    0.54857    1.000
    Si4561   Si       0.76359    0.08821    0.71370    1.000
    N4562    N        0.84797    0.10584    0.67348    1.000
    N4563    N        0.76659    0.07873    0.67050    1.000
    N4564    N        0.79899    0.09219    0.74166    1.000
    Si4565   Si       0.98365    0.07614    0.65198    1.000
    N4566    N        0.96118    0.12577    0.73846    1.000
    N4567    N        0.97566    0.11433    0.67478    1.000
    Si4568   Si       0.93410    0.09233    0.74327    1.000
    N4569    N        0.89509    0.10345    0.72421    1.000
    Si4570   Si       0.87301    0.07939    0.69664    1.000
    Si4571   Si       0.95296    0.12996    0.63748    1.000
    N4572    N        0.83904    0.09624    0.85527    1.000
    Si4573   Si       0.84288    0.10942    0.81043    1.000
    Si4574   Si       0.77285    0.11281    0.81605    1.000
    N4575    N        0.78062    0.07320    0.82912    1.000
    N4576    N        0.85147    0.07378    0.78581    1.000
    N4577    N        0.94773    0.09597    0.85006    1.000
    N4578    N        0.92540    0.09829    0.78465    1.000
    Si4579   Si       0.93592    0.07227    0.81642    1.000
    Si4580   Si       0.74403    0.06994    0.96540    1.000
    Si4581   Si       0.80898    0.08084    0.93003    1.000
    N4582    N        0.80881    0.12420    0.91925    1.000
    N4583    N        0.78778    0.07192    0.96544    1.000
    Si4584   Si       0.91508    0.12637    0.91711    1.000
    N4585    N        0.91125    0.08271    0.90715    1.000
    N4586    N        0.97856    0.08223    0.91773    1.000
    Si4587   Si       0.94941    0.07235    0.88832    1.000
    Si4588   Si       0.97683    0.11567    0.94441    1.000
    N4589    N        0.78843    0.16936    0.08233    1.000
    Si4590   Si       0.81454    0.13718    0.06737    1.000
    N4591    N        0.82519    0.13646    0.02660    1.000
    Si4592   Si       0.82566    0.17482    0.00551    1.000
    N4593    N        0.85351    0.13643    0.08726    1.000
    Si4594   Si       0.75341    0.13954    0.08658    1.000
    N4595    N        0.92436    0.15461    0.08057    1.000
    Si4596   Si       0.94790    0.17261    0.04827    1.000
    N4597    N        0.92619    0.17231    0.01109    1.000
    N4598    N        0.98684    0.15104    0.04211    1.000
    Si4599   Si       0.85221    0.14489    0.12979    1.000
    Si4600   Si       0.78218    0.15165    0.22887    1.000
    N4601    N        0.82061    0.17120    0.14210    1.000
    N4602    N        0.85504    0.15590    0.19953    1.000
    Si4603   Si       0.82573    0.18447    0.18340    1.000
    N4604    N        0.74039    0.14687    0.22117    1.000
    N4605    N        0.73332    0.14902    0.12555    1.000
    N4606    N        0.79145    0.18890    0.20810    1.000
    Si4607   Si       0.92911    0.16967    0.12332    1.000
    Si4608   Si       0.89702    0.15748    0.18640    1.000
    N4609    N        0.89267    0.15677    0.14138    1.000
    N4610    N        0.95884    0.15705    0.14953    1.000
    Si4611   Si       0.77031    0.15555    0.30264    1.000
    N4612    N        0.80028    0.15891    0.27023    1.000
    Si4613   Si       0.83743    0.17971    0.27820    1.000
    N4614    N        0.76862    0.18534    0.34018    1.000
    Si4615   Si       0.87357    0.18319    0.33137    1.000
    N4616    N        0.87392    0.15947    0.29395    1.000
    N4617    N        0.96949    0.16659    0.36119    1.000
    Si4618   Si       0.91462    0.14204    0.29149    1.000
    N4619    N        0.90508    0.16213    0.35295    1.000
    N4620    N        0.94084    0.17355    0.27738    1.000
    N4621    N        0.83278    0.17528    0.38039    1.000
    N4622    N        0.83750    0.14925    0.43629    1.000
    Si4623   Si       0.83636    0.13326    0.39372    1.000
    N4624    N        0.74193    0.13052    0.44002    1.000
    Si4625   Si       0.83789    0.12760    0.47252    1.000
    N4626    N        0.91094    0.15524    0.42269    1.000
    N4627    N        0.94959    0.12963    0.49110    1.000
    Si4628   Si       0.94057    0.15378    0.45570    1.000
    Si4629   Si       0.90822    0.13366    0.38643    1.000
    N4630    N        0.97817    0.16316    0.43684    1.000
    Si4631   Si       0.83595    0.16218    0.60053    1.000
    N4632    N        0.76022    0.17631    0.53027    1.000
    N4633    N        0.80295    0.13429    0.61220    1.000
    Si4634   Si       0.76764    0.13406    0.52432    1.000
    Si4635   Si       0.85998    0.18035    0.52880    1.000
    N4636    N        0.86686    0.14241    0.50507    1.000
    N4637    N        0.86798    0.16402    0.56827    1.000
    N4638    N        0.94255    0.16962    0.55494    1.000
    Si4639   Si       0.90915    0.15206    0.57657    1.000
    N4640    N        0.91761    0.14242    0.61780    1.000
    Si4641   Si       0.94937    0.12996    0.53407    1.000
    Si4642   Si       0.77873    0.17728    0.70854    1.000
    Si4643   Si       0.83887    0.14770    0.66953    1.000
    N4644    N        0.79929    0.16508    0.67211    1.000
    Si4645   Si       0.77223    0.15498    0.63752    1.000
    N4646    N        0.76118    0.13481    0.71739    1.000
    N4647    N        0.85910    0.16824    0.63783    1.000
    N4648    N        0.85741    0.16795    0.70509    1.000
    N4649    N        0.91928    0.15287    0.68368    1.000
    Si4650   Si       0.89252    0.14757    0.71830    1.000
    N4651    N        0.97315    0.16844    0.63662    1.000
    Si4652   Si       0.95966    0.14881    0.70039    1.000
    Si4653   Si       0.90109    0.17119    0.64756    1.000
    N4654    N        0.97897    0.18602    0.70893    1.000
    N4655    N        0.82826    0.16178    0.85836    1.000
    Si4656   Si       0.78603    0.16959    0.85718    1.000
    N4657    N        0.75835    0.13552    0.85043    1.000
    Si4658   Si       0.86178    0.17208    0.83150    1.000
    Si4659   Si       0.78401    0.12999    0.75787    1.000
    N4660    N        0.79245    0.17526    0.75044    1.000
    N4661    N        0.80782    0.12918    0.79696    1.000
    N4662    N        0.74704    0.11757    0.78241    1.000
    N4663    N        0.94543    0.15785    0.81812    1.000
    N4664    N        0.90088    0.16293    0.75784    1.000
    Si4665   Si       0.91551    0.13978    0.79328    1.000
    Si4666   Si       0.95945    0.13766    0.85380    1.000
    N4667    N        0.87876    0.13486    0.81835    1.000
    N4668    N        0.75208    0.16864    0.96007    1.000
    Si4669   Si       0.78580    0.16062    0.93372    1.000
    N4670    N        0.81994    0.17241    0.96055    1.000
    Si4671   Si       0.85971    0.16030    0.94986    1.000
    Si4672   Si       0.83929    0.12911    0.88602    1.000
    N4673    N        0.94136    0.15367    0.89090    1.000
    Si4674   Si       0.91429    0.13531    0.99251    1.000
    N4675    N        0.93640    0.12610    0.95596    1.000
    N4676    N        0.87328    0.14110    0.91143    1.000
    N4677    N        0.87352    0.13343    0.98048    1.000
    N4678    N        0.84923    0.21266    0.09739    1.000
    Si4679   Si       0.85707    0.22512    0.05541    1.000
    Si4680   Si       0.80926    0.19634    0.10807    1.000
    N4681    N        0.79223    0.19896    0.02175    1.000
    N4682    N        0.75909    0.22903    0.06772    1.000
    N4683    N        0.86012    0.19598    0.02300    1.000
    Si4684   Si       0.78678    0.24013    0.03093    1.000
    Si4685   Si       0.74884    0.24351    0.10758    1.000
    Si4686   Si       0.75389    0.19280    0.04349    1.000
    N4687    N        0.96049    0.21325    0.05980    1.000
    Si4688   Si       0.88837    0.23325    0.10817    1.000
    N4689    N        0.92210    0.24053    0.00258    1.000
    N4690    N        0.78761    0.22933    0.12573    1.000
    N4691    N        0.84017    0.22605    0.18237    1.000
    Si4692   Si       0.77140    0.22434    0.22344    1.000
    N4693    N        0.90760    0.19636    0.20277    1.000
    N4694    N        0.97442    0.18200    0.21703    1.000
    Si4695   Si       0.87296    0.22122    0.21500    1.000
    Si4696   Si       0.94704    0.21517    0.21254    1.000
    Si4697   Si       0.95728    0.23609    0.13775    1.000
    N4698    N        0.92346    0.21250    0.12365    1.000
    Si4699   Si       0.80843    0.20185    0.35476    1.000
    N4700    N        0.83305    0.19610    0.31920    1.000
    N4701    N        0.78807    0.23590    0.26257    1.000
    N4702    N        0.84944    0.21265    0.25206    1.000
    N4703    N        0.95825    0.22391    0.32311    1.000
    N4704    N        0.89627    0.22113    0.33747    1.000
    Si4705   Si       0.96462    0.20849    0.28185    1.000
    Si4706   Si       0.93408    0.19847    0.35279    1.000
    N4707    N        0.94782    0.23499    0.25083    1.000
    N4708    N        0.80322    0.23986    0.37929    1.000
    N4709    N        0.80842    0.21509    0.44314    1.000
    Si4710   Si       0.81269    0.23072    0.48274    1.000
    Si4711   Si       0.77831    0.22828    0.41414    1.000
    Si4712   Si       0.83622    0.18993    0.42242    1.000
    N4713    N        0.75442    0.19179    0.40759    1.000
    Si4714   Si       0.73816    0.24196    0.47286    1.000
    N4715    N        0.87151    0.21564    0.42325    1.000
    N4716    N        0.92929    0.19439    0.46826    1.000
    Si4717   Si       0.91020    0.19860    0.42920    1.000
    N4718    N        0.93981    0.20874    0.39529    1.000
    Si4719   Si       0.97705    0.18425    0.39931    1.000
    Si4720   Si       0.78643    0.21735    0.60371    1.000
    Si4721   Si       0.79006    0.20335    0.54314    1.000
    N4722    N        0.82275    0.20090    0.51466    1.000
    N4723    N        0.77246    0.23615    0.56707    1.000
    N4724    N        0.81032    0.18996    0.58074    1.000
    N4725    N        0.88996    0.21260    0.52515    1.000
    N4726    N        0.96909    0.21965    0.52388    1.000
    Si4727   Si       0.97635    0.19600    0.55928    1.000
    Si4728   Si       0.93103    0.21683    0.50391    1.000
    N4729    N        0.98225    0.22124    0.59614    1.000
    N4730    N        0.80688    0.22737    0.70285    1.000
    Si4731   Si       0.84749    0.20934    0.70641    1.000
    N4732    N        0.75791    0.19668    0.62974    1.000
    N4733    N        0.86463    0.23128    0.67315    1.000
    N4734    N        0.97605    0.23974    0.66401    1.000
    N4735    N        0.86989    0.22899    0.73800    1.000
    N4736    N        0.91852    0.20877    0.63693    1.000
    Si4737   Si       0.96119    0.21061    0.63345    1.000
    Si4738   Si       0.89683    0.24371    0.64800    1.000
    N4739    N        0.99026    0.24561    0.73944    1.000
    Si4740   Si       0.80494    0.19592    0.78763    1.000
    N4741    N        0.84864    0.19267    0.79443    1.000
    N4742    N        0.77702    0.18964    0.82082    1.000
    N4743    N        0.79944    0.23958    0.78100    1.000
    Si4744   Si       0.93344    0.19729    0.82778    1.000
    Si4745   Si       0.88405    0.20195    0.77052    1.000
    N4746    N        0.91699    0.22028    0.79269    1.000
    N4747    N        0.95837    0.21415    0.85792    1.000
    N4748    N        0.89327    0.19533    0.84794    1.000
    Si4749   Si       0.89155    0.23038    0.87128    1.000
    N4750    N        0.76297    0.23053    0.94420    1.000
    Si4751   Si       0.76574    0.22470    0.90169    1.000
    N4752    N        0.85719    0.23468    0.89574    1.000
    N4753    N        0.77955    0.18381    0.89762    1.000
    Si4754   Si       0.94980    0.19684    0.89724    1.000
    N4755    N        0.88320    0.19696    0.95930    1.000
    N4756    N        0.97929    0.20606    0.92763    1.000
    N4757    N        0.91719    0.22488    0.90768    1.000
    Si4758   Si       0.88125    0.23107    0.93228    1.000
    Si4759   Si       0.89777    0.20273    0.99954    1.000
    N4760    N        0.82558    0.25364    0.04585    1.000
    Si4761   Si       0.83011    0.29636    0.04215    1.000
    N4762    N        0.74608    0.28834    0.10704    1.000
    N4763    N        0.77599    0.26824    0.00052    1.000
    Si4764   Si       0.76030    0.30341    0.02200    1.000
    Si4765   Si       0.97894    0.29269    0.08311    1.000
    N4766    N        0.95557    0.28365    0.04927    1.000
    N4767    N        0.95654    0.27200    0.11491    1.000
    Si4768   Si       0.93316    0.24465    0.04525    1.000
    N4769    N        0.89574    0.24131    0.06639    1.000
    N4770    N        0.83498    0.28468    0.23949    1.000
    N4771    N        0.77656    0.25504    0.19272    1.000
    N4772    N        0.81225    0.28734    0.14192    1.000
    Si4773   Si       0.80568    0.24863    0.16078    1.000
    Si4774   Si       0.85417    0.29894    0.14045    1.000
    Si4775   Si       0.96397    0.28844    0.18656    1.000
    N4776    N        0.95656    0.29626    0.22889    1.000
    Si4777   Si       0.87292    0.29425    0.21951    1.000
    N4778    N        0.95949    0.24583    0.17917    1.000
    Si4779   Si       0.92130    0.29575    0.12801    1.000
    N4780    N        0.89266    0.25846    0.22752    1.000
    N4781    N        0.88474    0.27238    0.12600    1.000
    Si4782   Si       0.76311    0.26680    0.28062    1.000
    N4783    N        0.84565    0.26646    0.30343    1.000
    Si4784   Si       0.82971    0.25020    0.26507    1.000
    N4785    N        0.78875    0.30208    0.28514    1.000
    N4786    N        0.86897    0.27790    0.36328    1.000
    Si4787   Si       0.95251    0.26615    0.32562    1.000
    N4788    N        0.91779    0.27616    0.29922    1.000
    Si4789   Si       0.88305    0.26051    0.32408    1.000
    N4790    N        0.93967    0.27989    0.36609    1.000
    Si4791   Si       0.92623    0.27412    0.25278    1.000
    N4792    N        0.77405    0.25112    0.49284    1.000
    N4793    N        0.84990    0.25215    0.47921    1.000
    Si4794   Si       0.82752    0.27751    0.37960    1.000
    N4795    N        0.83054    0.28668    0.42257    1.000
    N4796    N        0.74797    0.25329    0.43102    1.000
    Si4797   Si       0.86171    0.25664    0.43645    1.000
    Si4798   Si       0.93134    0.28327    0.46010    1.000
    Si4799   Si       0.97209    0.28676    0.39675    1.000
    Si4800   Si       0.90148    0.29512    0.38684    1.000
    N4801    N        0.97041    0.27730    0.43984    1.000
    N4802    N        0.89874    0.28217    0.42891    1.000
    N4803    N        0.91874    0.25688    0.49180    1.000
    N4804    N        0.75322    0.29313    0.54269    1.000
    Si4805   Si       0.77073    0.29556    0.50453    1.000
    Si4806   Si       0.80830    0.28862    0.62081    1.000
    N4807    N        0.86932    0.28675    0.53394    1.000
    Si4808   Si       0.87146    0.29132    0.57705    1.000
    N4809    N        0.88410    0.27082    0.61508    1.000
    Si4810   Si       0.88037    0.25146    0.51025    1.000
    N4811    N        0.98320    0.28666    0.51365    1.000
    N4812    N        0.74279    0.26362    0.66496    1.000
    N4813    N        0.80947    0.24507    0.62557    1.000
    Si4814   Si       0.74427    0.29084    0.70155    1.000
    Si4815   Si       0.79891    0.25350    0.73923    1.000
    N4816    N        0.82726    0.28282    0.72732    1.000
    N4817    N        0.75711    0.26693    0.73708    1.000
    N4818    N        0.82286    0.29207    0.66117    1.000
    Si4819   Si       0.82403    0.24743    0.66731    1.000
    Si4820   Si       0.96741    0.28400    0.66370    1.000
    N4821    N        0.92079    0.27457    0.66646    1.000
    Si4822   Si       0.86819    0.27162    0.73866    1.000
    Si4823   Si       0.78603    0.25507    0.82229    1.000
    N4824    N        0.78910    0.29635    0.81767    1.000
    N4825    N        0.83866    0.29606    0.86559    1.000
    N4826    N        0.79115    0.24607    0.86896    1.000
    N4827    N        0.74106    0.24957    0.81667    1.000
    Si4828   Si       0.91484    0.26393    0.80174    1.000
    N4829    N        0.89557    0.26145    0.84118    1.000
    N4830    N        0.88263    0.28374    0.78061    1.000
    N4831    N        0.95441    0.27949    0.79385    1.000
    Si4832   Si       0.87916    0.29910    0.85312    1.000
    N4833    N        0.99498    0.27885    0.85413    1.000
    Si4834   Si       0.77765    0.26909    0.95622    1.000
    Si4835   Si       0.84744    0.29137    0.95768    1.000
    N4836    N        0.81676    0.26781    0.93495    1.000
    Si4837   Si       0.82409    0.26338    0.89258    1.000
    N4838    N        0.88319    0.26700    0.95577    1.000
    N4839    N        0.94573    0.28465    0.94445    1.000
    Si4840   Si       0.91976    0.27507    0.97782    1.000
    N4841    N        0.78642    0.34738    0.11001    1.000
    N4842    N        0.79125    0.31441    0.04936    1.000
    Si4843   Si       0.77123    0.34856    0.07056    1.000
    N4844    N        0.86554    0.31707    0.05555    1.000
    N4845    N        0.84234    0.30426    0.99912    1.000
    N4846    N        0.98339    0.33257    0.09969    1.000
    Si4847   Si       0.87976    0.34304    0.08709    1.000
    N4848    N        0.91715    0.32826    0.10081    1.000
    Si4849   Si       0.87737    0.32852    0.01495    1.000
    Si4850   Si       0.94876    0.35778    0.10191    1.000
    N4851    N        0.91545    0.31588    0.99863    1.000
    N4852    N        0.85397    0.33863    0.12072    1.000
    Si4853   Si       0.77557    0.30961    0.13164    1.000
    Si4854   Si       0.85438    0.35065    0.19135    1.000
    N4855    N        0.75736    0.32706    0.16786    1.000
    N4856    N        0.78198    0.33951    0.22900    1.000
    N4857    N        0.84592    0.35109    0.23318    1.000
    N4858    N        0.86449    0.30960    0.18171    1.000
    Si4859   Si       0.74219    0.32261    0.23897    1.000
    Si4860   Si       0.77939    0.35793    0.18989    1.000
    Si4861   Si       0.94151    0.33528    0.23969    1.000
    Si4862   Si       0.92796    0.35818    0.17082    1.000
    N4863    N        0.93729    0.31477    0.16400    1.000
    N4864    N        0.90051    0.31680    0.24404    1.000
    N4865    N        0.83984    0.33842    0.29302    1.000
    Si4866   Si       0.77088    0.32798    0.36626    1.000
    Si4867   Si       0.81396    0.32513    0.25634    1.000
    N4868    N        0.80565    0.30267    0.35385    1.000
    Si4869   Si       0.82278    0.30175    0.31402    1.000
    Si4870   Si       0.87318    0.34560    0.26454    1.000
    Si4871   Si       0.96630    0.35037    0.36005    1.000
    N4872    N        0.95937    0.34389    0.27836    1.000
    N4873    N        0.92618    0.35601    0.34330    1.000
    N4874    N        0.74761    0.31736    0.47304    1.000
    Si4875   Si       0.82313    0.31515    0.45495    1.000
    Si4876   Si       0.75854    0.34510    0.44122    1.000
    N4877    N        0.75606    0.31844    0.40602    1.000
    N4878    N        0.80244    0.35149    0.44298    1.000
    N4879    N        0.86093    0.32814    0.46970    1.000
    N4880    N        0.80995    0.30979    0.49828    1.000
    N4881    N        0.96833    0.32937    0.39914    1.000
    N4882    N        0.92792    0.32478    0.46697    1.000
    N4883    N        0.98782    0.35324    0.49581    1.000
    N4884    N        0.89320    0.33579    0.39913    1.000
    Si4885   Si       0.94687    0.35822    0.48449    1.000
    Si4886   Si       0.89366    0.32639    0.44144    1.000
    Si4887   Si       0.82624    0.34597    0.57239    1.000
    Si4888   Si       0.75627    0.32464    0.57378    1.000
    Si4889   Si       0.84861    0.32082    0.51115    1.000
    N4890    N        0.85106    0.35616    0.53692    1.000
    N4891    N        0.78515    0.35333    0.56028    1.000
    N4892    N        0.83161    0.30421    0.58790    1.000
    N4893    N        0.76838    0.30286    0.61078    1.000
    Si4894   Si       0.99040    0.32926    0.53100    1.000
    N4895    N        0.96152    0.33530    0.56167    1.000
    N4896    N        0.89992    0.32199    0.58442    1.000
    Si4897   Si       0.97509    0.33832    0.60291    1.000
    Si4898   Si       0.92039    0.35390    0.56251    1.000
    Si4899   Si       0.77097    0.36221    0.71258    1.000
    N4900    N        0.77487    0.32147    0.70109    1.000
    N4901    N        0.84187    0.35107    0.70218    1.000
    Si4902   Si       0.81706    0.31513    0.69843    1.000
    Si4903   Si       0.91037    0.30617    0.62627    1.000
    Si4904   Si       0.91433    0.31055    0.68995    1.000
    N4905    N        0.89232    0.30584    0.72536    1.000
    N4906    N        0.95717    0.31389    0.69965    1.000
    N4907    N        0.89308    0.33336    0.65620    1.000
    N4908    N        0.95396    0.31018    0.62651    1.000
    Si4909   Si       0.80437    0.32020    0.85023    1.000
    N4910    N        0.86123    0.35731    0.77232    1.000
    Si4911   Si       0.74095    0.34703    0.84010    1.000
    N4912    N        0.76586    0.32912    0.87018    1.000
    Si4913   Si       0.99261    0.32062    0.86630    1.000
    Si4914   Si       0.96154    0.32276    0.79812    1.000
    N4915    N        0.93198    0.33880    0.76978    1.000
    N4916    N        0.89019    0.33477    0.82665    1.000
    N4917    N        0.95892    0.34176    0.83894    1.000
    Si4918   Si       0.88919    0.32503    0.76636    1.000
    Si4919   Si       0.92050    0.34403    0.85630    1.000
    N4920    N        0.84414    0.32970    0.93533    1.000
    Si4921   Si       0.75899    0.33793    0.91208    1.000
    N4922    N        0.75664    0.30151    0.93816    1.000
    N4923    N        0.75144    0.33680    0.99705    1.000
    Si4924   Si       0.93369    0.31733    0.91667    1.000
    Si4925   Si       0.94096    0.34680    0.98034    1.000
    N4926    N        0.90951    0.31078    0.88129    1.000
    N4927    N        0.98228    0.33255    0.97191    1.000
    N4928    N        0.97540    0.32269    0.90586    1.000
    N4929    N        0.91902    0.35046    0.94146    1.000
    Si4930   Si       0.98715    0.30277    0.94228    1.000
    N4931    N        0.77774    0.38272    0.04487    1.000
    N4932    N        0.81822    0.40703    0.10881    1.000
    Si4933   Si       0.84660    0.39788    0.00676    1.000
    Si4934   Si       0.77249    0.37366    0.00192    1.000
    Si4935   Si       0.79849    0.41304    0.06806    1.000
    N4936    N        0.83552    0.41823    0.04359    1.000
    N4937    N        0.94802    0.37724    0.06092    1.000
    N4938    N        0.88517    0.38556    0.07788    1.000
    Si4939   Si       0.91467    0.39097    0.03500    1.000
    N4940    N        0.88048    0.37237    0.01377    1.000
    N4941    N        0.76353    0.39807    0.19133    1.000
    Si4942   Si       0.82145    0.36831    0.12829    1.000
    N4943    N        0.81817    0.36419    0.17133    1.000
    N4944    N        0.88975    0.37389    0.17941    1.000
    N4945    N        0.94910    0.36556    0.20901    1.000
    N4946    N        0.94800    0.38059    0.13884    1.000
    Si4947   Si       0.97798    0.39762    0.21327    1.000
    Si4948   Si       0.83192    0.38074    0.31185    1.000
    N4949    N        0.78906    0.38335    0.30958    1.000
    Si4950   Si       0.77329    0.40703    0.34828    1.000
    N4951    N        0.85165    0.41514    0.29779    1.000
    Si4952   Si       0.74948    0.38378    0.28876    1.000
    N4953    N        0.85127    0.36946    0.35142    1.000
    N4954    N        0.74838    0.42008    0.26167    1.000
    N4955    N        0.95063    0.40874    0.31365    1.000
    N4956    N        0.89939    0.37647    0.27823    1.000
    Si4957   Si       0.88359    0.41491    0.26789    1.000
    Si4958   Si       0.94448    0.41343    0.35729    1.000
    Si4959   Si       0.93406    0.36877    0.30261    1.000
    Si4960   Si       0.89107    0.36715    0.37001    1.000
    N4961    N        0.78501    0.37012    0.37239    1.000
    Si4962   Si       0.82403    0.38853    0.37839    1.000
    Si4963   Si       0.82439    0.38729    0.44624    1.000
    N4964    N        0.85136    0.38847    0.41213    1.000
    N4965    N        0.84386    0.39775    0.48239    1.000
    Si4966   Si       0.75732    0.42011    0.42989    1.000
    N4967    N        0.95039    0.38434    0.44707    1.000
    Si4968   Si       0.97844    0.36969    0.41733    1.000
    N4969    N        0.97550    0.39036    0.37841    1.000
    N4970    N        0.90711    0.40897    0.37890    1.000
    Si4971   Si       0.77540    0.39139    0.54490    1.000
    Si4972   Si       0.84700    0.39747    0.52628    1.000
    N4973    N        0.75080    0.40985    0.57770    1.000
    N4974    N        0.83552    0.37278    0.60376    1.000
    N4975    N        0.81171    0.41577    0.54310    1.000
    Si4976   Si       0.87146    0.39701    0.60814    1.000
    N4977    N        0.90840    0.38873    0.58987    1.000
    N4978    N        0.97261    0.38229    0.60488    1.000
    N4979    N        0.92786    0.37564    0.52178    1.000
    Si4980   Si       0.94208    0.41434    0.60676    1.000
    Si4981   Si       0.94561    0.41339    0.53348    1.000
    N4982    N        0.78223    0.39354    0.68228    1.000
    Si4983   Si       0.83908    0.37407    0.73940    1.000
    N4984    N        0.85638    0.41486    0.73364    1.000
    N4985    N        0.79705    0.37149    0.74687    1.000
    N4986    N        0.87182    0.40068    0.65279    1.000
    N4987    N        0.91075    0.37644    0.70694    1.000
    Si4988   Si       0.89855    0.41704    0.72375    1.000
    N4989    N        0.98133    0.37192    0.73073    1.000
    Si4990   Si       0.94022    0.37171    0.74130    1.000
    Si4991   Si       0.87709    0.36537    0.68012    1.000
    Si4992   Si       0.79525    0.39116    0.83102    1.000
    Si4993   Si       0.75881    0.37959    0.76951    1.000
    N4994    N        0.76277    0.36726    0.81057    1.000
    Si4995   Si       0.86042    0.36416    0.81399    1.000
    N4996    N        0.82219    0.35708    0.83610    1.000
    N4997    N        0.92628    0.41083    0.75740    1.000
    Si4998   Si       0.91221    0.41112    0.84970    1.000
    N4999    N        0.87602    0.40362    0.82601    1.000
    N5000    N        0.94642    0.40682    0.82162    1.000
    Si5001   Si       0.97977    0.37770    0.82273    1.000
    Si5002   Si       0.82596    0.36715    0.94074    1.000
    Si5003   Si       0.76660    0.40820    0.94042    1.000
    N5004    N        0.81472    0.37917    0.98345    1.000
    N5005    N        0.78486    0.37162    0.92453    1.000
    N5006    N        0.85562    0.39487    0.92790    1.000
    N5007    N        0.75148    0.40281    0.98061    1.000
    N5008    N        0.90874    0.37830    0.87862    1.000
    Si5009   Si       0.89747    0.38310    0.91928    1.000
    N5010    N        0.93972    0.38643    0.99657    1.000
    N5011    N        0.77471    0.45196    0.07899    1.000
    N5012    N        0.75807    0.46461    0.01151    1.000
    N5013    N        0.86694    0.45401    0.09953    1.000
    N5014    N        0.90035    0.43261    0.03923    1.000
    N5015    N        0.97653    0.44432    0.11581    1.000
    Si5016   Si       0.89554    0.45371    0.99927    1.000
    Si5017   Si       0.86964    0.42351    0.06941    1.000
    Si5018   Si       0.76514    0.46415    0.11900    1.000
    Si5019   Si       0.83530    0.44123    0.12810    1.000
    Si5020   Si       0.76468    0.42813    0.22131    1.000
    Si5021   Si       0.82076    0.46505    0.18379    1.000
    N5022    N        0.80261    0.47022    0.14223    1.000
    N5023    N        0.79663    0.45771    0.22046    1.000
    N5024    N        0.84932    0.43564    0.16907    1.000
    Si5025   Si       0.89478    0.46785    0.24430    1.000
    N5026    N        0.92144    0.43610    0.16576    1.000
    N5027    N        0.98699    0.42637    0.18115    1.000
    N5028    N        0.88235    0.43170    0.22652    1.000
    Si5029   Si       0.95820    0.42259    0.14921    1.000
    Si5030   Si       0.88837    0.41742    0.18432    1.000
    N5031    N        0.96289    0.42270    0.24324    1.000
    Si5032   Si       0.83034    0.44798    0.31933    1.000
    N5033    N        0.80664    0.46422    0.28722    1.000
    N5034    N        0.75530    0.44187    0.32579    1.000
    Si5035   Si       0.76243    0.45592    0.28457    1.000
    N5036    N        0.85983    0.47732    0.33222    1.000
    N5037    N        0.81525    0.42393    0.35339    1.000
    N5038    N        0.96799    0.45406    0.35989    1.000
    N5039    N        0.90888    0.44601    0.27955    1.000
    Si5040   Si       0.95116    0.43685    0.28193    1.000
    N5041    N        0.97080    0.47422    0.28841    1.000
    N5042    N        0.74719    0.45529    0.45127    1.000
    N5043    N        0.83956    0.46760    0.47066    1.000
    Si5044   Si       0.82356    0.45997    0.43092    1.000
    N5045    N        0.85570    0.45920    0.40271    1.000
    N5046    N        0.74511    0.42496    0.38620    1.000
    N5047    N        0.80034    0.42253    0.43140    1.000
    N5048    N        0.95460    0.44511    0.42344    1.000
    N5049    N        0.94970    0.43570    0.49536    1.000
    Si5050   Si       0.94769    0.47360    0.39286    1.000
    Si5051   Si       0.86672    0.43421    0.48226    1.000
    Si5052   Si       0.87899    0.42162    0.41128    1.000
    Si5053   Si       0.93687    0.42424    0.45599    1.000
    N5054    N        0.89408    0.42955    0.44936    1.000
    N5055    N        0.79794    0.46223    0.60064    1.000
    Si5056   Si       0.82453    0.44821    0.56821    1.000
    Si5057   Si       0.75320    0.45188    0.59420    1.000
    N5058    N        0.86200    0.43604    0.58773    1.000
    N5059    N        0.75263    0.47557    0.55507    1.000
    Si5060   Si       0.89408    0.45048    0.56109    1.000
    N5061    N        0.93791    0.44043    0.56750    1.000
    Si5062   Si       0.97279    0.46840    0.57286    1.000
    N5063    N        0.87670    0.43311    0.52577    1.000
    N5064    N        0.74660    0.44340    0.63736    1.000
    Si5065   Si       0.76915    0.43392    0.67458    1.000
    N5066    N        0.80062    0.46597    0.67463    1.000
    N5067    N        0.86186    0.47207    0.64494    1.000
    Si5068   Si       0.81723    0.47804    0.63706    1.000
    N5069    N        0.80198    0.46411    0.75192    1.000
    Si5070   Si       0.84436    0.45253    0.74898    1.000
    N5071    N        0.90568    0.45228    0.69776    1.000
    Si5072   Si       0.88660    0.44119    0.65819    1.000
    N5073    N        0.92590    0.43711    0.63866    1.000
    Si5074   Si       0.94333    0.45298    0.67560    1.000
    N5075    N        0.98121    0.43254    0.67507    1.000
    Si5076   Si       0.85197    0.43671    0.81514    1.000
    Si5077   Si       0.78316    0.44708    0.78694    1.000
    Si5078   Si       0.79707    0.45805    0.85364    1.000
    N5079    N        0.83999    0.46358    0.84699    1.000
    N5080    N        0.77618    0.47619    0.81694    1.000
    N5081    N        0.75212    0.42261    0.77199    1.000
    N5082    N        0.77598    0.42127    0.85833    1.000
    N5083    N        0.81369    0.41836    0.80425    1.000
    N5084    N        0.87011    0.45840    0.78294    1.000
    N5085    N        0.94487    0.47367    0.78756    1.000
    Si5086   Si       0.95251    0.43163    0.78551    1.000
    N5087    N        0.90620    0.45040    0.87025    1.000
    Si5088   Si       0.80782    0.47962    0.92535    1.000
    N5089    N        0.85130    0.47053    0.92845    1.000
    Si5090   Si       0.84462    0.43169    0.94514    1.000
    N5091    N        0.79943    0.43657    0.94053    1.000
    N5092    N        0.98679    0.42003    0.95280    1.000
    N5093    N        0.86339    0.43103    0.98332    1.000
    Si5094   Si       0.92884    0.45269    0.90794    1.000
    N5095    N        0.96909    0.44610    0.89574    1.000
    N5096    N        0.93854    0.45601    0.98938    1.000
    N5097    N        0.92113    0.41761    0.93363    1.000
    Si5098   Si       0.94666    0.41931    0.96967    1.000
    N5099    N        0.79980    0.50961    0.02071    1.000
    N5100    N        0.80527    0.50911    0.08458    1.000
    Si5101   Si       0.82697    0.52822    0.04986    1.000
    Si5102   Si       0.77367    0.48585    0.05182    1.000
    N5103    N        0.74103    0.51458    0.05380    1.000
    N5104    N        0.86751    0.51438    0.06092    1.000
    Si5105   Si       0.88847    0.52332    0.02170    1.000
    Si5106   Si       0.87897    0.49634    0.09839    1.000
    N5107    N        0.92846    0.50747    0.03374    1.000
    Si5108   Si       0.94174    0.52382    0.07271    1.000
    N5109    N        0.92204    0.49899    0.10225    1.000
    N5110    N        0.98237    0.51648    0.09175    1.000
    Si5111   Si       0.95585    0.49474    0.00184    1.000
    Si5112   Si       0.95958    0.48588    0.11968    1.000
    N5113    N        0.74746    0.50471    0.12203    1.000
    Si5114   Si       0.81503    0.51253    0.12772    1.000
    Si5115   Si       0.75401    0.52611    0.15973    1.000
    Si5116   Si       0.75731    0.51416    0.23583    1.000
    N5117    N        0.84373    0.49583    0.20286    1.000
    N5118    N        0.85792    0.51767    0.12979    1.000
    N5119    N        0.74327    0.50415    0.19618    1.000
    Si5120   Si       0.82128    0.48243    0.24929    1.000
    Si5121   Si       0.94616    0.50983    0.19375    1.000
    N5122    N        0.96985    0.49165    0.16106    1.000
    Si5123   Si       0.87446    0.51781    0.22120    1.000
    N5124    N        0.91157    0.49539    0.21677    1.000
    N5125    N        0.97733    0.49176    0.22094    1.000
    N5126    N        0.74343    0.49168    0.27142    1.000
    N5127    N        0.86404    0.49277    0.26341    1.000
    N5128    N        0.79919    0.51914    0.25074    1.000
    Si5129   Si       0.86455    0.50865    0.30309    1.000
    N5130    N        0.97311    0.52368    0.33622    1.000
    N5131    N        0.89778    0.53712    0.30944    1.000
    Si5132   Si       0.98303    0.48145    0.32969    1.000
    N5133    N        0.84790    0.52733    0.37697    1.000
    Si5134   Si       0.82741    0.53177    0.41691    1.000
    N5135    N        0.74895    0.53063    0.44895    1.000
    N5136    N        0.80072    0.49665    0.42143    1.000
    Si5137   Si       0.75850    0.49291    0.43187    1.000
    N5138    N        0.86411    0.53893    0.43752    1.000
    Si5139   Si       0.86827    0.48911    0.37267    1.000
    Si5140   Si       0.90288    0.52699    0.41731    1.000
    N5141    N        0.90797    0.49224    0.38965    1.000
    Si5142   Si       0.97475    0.51425    0.44249    1.000
    N5143    N        0.93520    0.52631    0.44972    1.000
    N5144    N        0.97622    0.50348    0.40063    1.000
    Si5145   Si       0.78147    0.50588    0.54617    1.000
    N5146    N        0.82479    0.48644    0.54355    1.000
    Si5147   Si       0.85766    0.51748    0.54955    1.000
    N5148    N        0.78715    0.51549    0.50202    1.000
    N5149    N        0.85751    0.52371    0.50656    1.000
    Si5150   Si       0.82475    0.49528    0.49982    1.000
    N5151    N        0.78519    0.53962    0.57163    1.000
    N5152    N        0.89107    0.49421    0.56289    1.000
    N5153    N        0.96122    0.50891    0.58533    1.000
    Si5154   Si       0.91819    0.52260    0.58160    1.000
    Si5155   Si       0.74306    0.51525    0.74449    1.000
    N5156    N        0.82516    0.52227    0.63627    1.000
    N5157    N        0.77628    0.51695    0.71858    1.000
    Si5158   Si       0.80631    0.48586    0.71302    1.000
    N5159    N        0.84967    0.48229    0.71855    1.000
    Si5160   Si       0.92701    0.53525    0.66121    1.000
    N5161    N        0.94870    0.49473    0.67034    1.000
    Si5162   Si       0.89200    0.49157    0.71308    1.000
    N5163    N        0.90335    0.52972    0.62402    1.000
    Si5164   Si       0.86722    0.51482    0.64566    1.000
    N5165    N        0.88920    0.52303    0.68298    1.000
    N5166    N        0.90331    0.51215    0.74869    1.000
    Si5167   Si       0.76603    0.51966    0.81657    1.000
    N5168    N        0.74736    0.53114    0.85414    1.000
    N5169    N        0.80451    0.53712    0.83016    1.000
    N5170    N        0.75605    0.53618    0.77900    1.000
    Si5171   Si       0.90382    0.48765    0.78763    1.000
    N5172    N        0.89591    0.50595    0.82624    1.000
    Si5173   Si       0.98082    0.49440    0.80257    1.000
    N5174    N        0.97274    0.53557    0.81871    1.000
    Si5175   Si       0.87707    0.48413    0.86039    1.000
    Si5176   Si       0.82395    0.53718    0.97747    1.000
    Si5177   Si       0.78991    0.53082    0.87218    1.000
    N5178    N        0.79664    0.50823    0.95515    1.000
    N5179    N        0.79240    0.48866    0.88565    1.000
    Si5180   Si       0.77096    0.50039    0.99079    1.000
    N5181    N        0.86853    0.51916    0.88535    1.000
    Si5182   Si       0.94618    0.52498    0.92684    1.000
    N5183    N        0.91709    0.49029    0.92624    1.000
    N5184    N        0.88202    0.49410    0.98990    1.000
    N5185    N        0.96258    0.51854    0.96762    1.000
    Si5186   Si       0.87887    0.49890    0.94354    1.000
    N5187    N        0.97107    0.51737    0.89032    1.000
    N5188    N        0.81258    0.57016    0.05674    1.000
    N5189    N        0.84998    0.54996    0.01260    1.000
    N5190    N        0.75449    0.57106    0.09582    1.000
    Si5191   Si       0.84507    0.58782    0.03494    1.000
    Si5192   Si       0.79416    0.59237    0.08831    1.000
    N5193    N        0.94204    0.56875    0.06584    1.000
    Si5194   Si       0.93938    0.57994    0.02199    1.000
    Si5195   Si       0.93190    0.58936    0.10315    1.000
    N5196    N        0.97756    0.57831    0.00220    1.000
    N5197    N        0.89182    0.57596    0.11607    1.000
    N5198    N        0.91050    0.55818    0.99947    1.000
    N5199    N        0.79421    0.54095    0.15428    1.000
    Si5200   Si       0.81694    0.57884    0.16074    1.000
    N5201    N        0.85547    0.56915    0.17723    1.000
    Si5202   Si       0.88222    0.54828    0.14786    1.000
    Si5203   Si       0.87846    0.58682    0.21091    1.000
    N5204    N        0.88310    0.55478    0.24003    1.000
    Si5205   Si       0.98309    0.55952    0.24242    1.000
    Si5206   Si       0.94242    0.57542    0.17633    1.000
    N5207    N        0.97510    0.55417    0.19965    1.000
    N5208    N        0.95617    0.58819    0.13639    1.000
    N5209    N        0.91889    0.53830    0.16896    1.000
    Si5210   Si       0.83766    0.56012    0.34918    1.000
    Si5211   Si       0.76206    0.57184    0.34315    1.000
    N5212    N        0.75595    0.55526    0.30317    1.000
    Si5213   Si       0.79919    0.54809    0.28191    1.000
    N5214    N        0.79732    0.58584    0.26052    1.000
    N5215    N        0.80323    0.58591    0.34693    1.000
    Si5216   Si       0.75353    0.58193    0.26891    1.000
    N5217    N        0.82951    0.53676    0.31115    1.000
    N5218    N        0.87243    0.58634    0.34968    1.000
    N5219    N        0.93953    0.58674    0.33609    1.000
    N5220    N        0.95126    0.56062    0.27240    1.000
    Si5221   Si       0.96731    0.56052    0.31286    1.000
    Si5222   Si       0.90672    0.55759    0.34668    1.000
    Si5223   Si       0.90818    0.56320    0.27443    1.000
    N5224    N        0.75246    0.54910    0.37956    1.000
    N5225    N        0.83818    0.58795    0.48689    1.000
    N5226    N        0.80300    0.56634    0.42921    1.000
    Si5227   Si       0.75990    0.56056    0.41896    1.000
    N5228    N        0.76362    0.58932    0.48730    1.000
    Si5229   Si       0.80456    0.59506    0.46135    1.000
    Si5230   Si       0.75460    0.54272    0.49002    1.000
    Si5231   Si       0.86604    0.55512    0.47829    1.000
    N5232    N        0.91932    0.55369    0.38866    1.000
    N5233    N        0.95542    0.59224    0.43858    1.000
    N5234    N        0.98599    0.57505    0.38482    1.000
    Si5235   Si       0.94198    0.56220    0.47097    1.000
    N5236    N        0.90399    0.57393    0.48342    1.000
    Si5237   Si       0.94405    0.58847    0.39537    1.000
    Si5238   Si       0.81193    0.57206    0.57684    1.000
    N5239    N        0.85120    0.55676    0.56846    1.000
    N5240    N        0.80624    0.58842    0.61629    1.000
    N5241    N        0.91687    0.55794    0.55830    1.000
    Si5242   Si       0.95205    0.57411    0.54111    1.000
    Si5243   Si       0.88437    0.58587    0.56619    1.000
    N5244    N        0.97815    0.57720    0.57542    1.000
    N5245    N        0.96487    0.54711    0.50752    1.000
    Si5246   Si       0.98607    0.54192    0.60019    1.000
    Si5247   Si       0.80252    0.55742    0.64481    1.000
    N5248    N        0.81608    0.57058    0.68472    1.000
    N5249    N        0.75429    0.58086    0.73069    1.000
    N5250    N        0.76252    0.55628    0.66008    1.000
    Si5251   Si       0.77857    0.55658    0.70232    1.000
    N5252    N        0.88635    0.58065    0.73338    1.000
    Si5253   Si       0.96861    0.58526    0.66229    1.000
    N5254    N        0.92690    0.57623    0.67728    1.000
    N5255    N        0.97512    0.54549    0.64341    1.000
    Si5256   Si       0.77399    0.57530    0.77056    1.000
    N5257    N        0.81966    0.57552    0.77439    1.000
    Si5258   Si       0.82761    0.57108    0.81642    1.000
    N5259    N        0.86230    0.57267    0.84153    1.000
    N5260    N        0.91354    0.56508    0.79637    1.000
    Si5261   Si       0.95687    0.56873    0.79442    1.000
    N5262    N        0.93038    0.56331    0.86093    1.000
    Si5263   Si       0.89846    0.54911    0.83250    1.000
    Si5264   Si       0.97039    0.54974    0.86023    1.000
    N5265    N        0.95496    0.56019    0.75062    1.000
    Si5266   Si       0.91232    0.55415    0.75420    1.000
    N5267    N        0.98571    0.59815    0.80828    1.000
    Si5268   Si       0.85024    0.55208    0.90557    1.000
    N5269    N        0.80724    0.55724    0.90093    1.000
    N5270    N        0.79869    0.57380    0.96913    1.000
    Si5271   Si       0.77830    0.56703    0.93076    1.000
    N5272    N        0.74165    0.54543    0.92163    1.000
    N5273    N        0.85850    0.53951    0.94865    1.000
    N5274    N        0.91905    0.55989    0.92793    1.000
    N5275    N        0.86836    0.59207    0.90001    1.000
    Si5276   Si       0.91076    0.58366    0.89412    1.000
    Si5277   Si       0.89069    0.56640    0.96261    1.000
    N5278    N        0.98677    0.57520    0.93479    1.000
    N5279    N        0.82608    0.61981    0.01357    1.000
    N5280    N        0.77618    0.63184    0.07738    1.000
    N5281    N        0.75558    0.62209    0.00756    1.000
    Si5282   Si       0.75085    0.64500    0.04555    1.000
    Si5283   Si       0.86294    0.60819    0.10823    1.000
    Si5284   Si       0.84218    0.65618    0.00017    1.000
    N5285    N        0.86664    0.61181    0.06365    1.000
    Si5286   Si       0.90263    0.63691    0.05593    1.000
    N5287    N        0.92802    0.62940    0.08911    1.000
    N5288    N        0.92073    0.61968    0.02092    1.000
    N5289    N        0.80065    0.60591    0.19206    1.000
    N5290    N        0.75603    0.62020    0.14227    1.000
    Si5291   Si       0.76471    0.63010    0.18333    1.000
    Si5292   Si       0.81328    0.61498    0.23251    1.000
    N5293    N        0.85571    0.61831    0.23337    1.000
    N5294    N        0.82221    0.59782    0.12023    1.000
    N5295    N        0.91881    0.60144    0.20047    1.000
    N5296    N        0.98267    0.64975    0.12074    1.000
    Si5297   Si       0.99201    0.61023    0.13258    1.000
    N5298    N        0.97614    0.64385    0.22312    1.000
    Si5299   Si       0.93431    0.64042    0.21413    1.000
    N5300    N        0.86958    0.64693    0.12289    1.000
    Si5301   Si       0.80828    0.62882    0.34880    1.000
    N5302    N        0.78890    0.64660    0.31346    1.000
    Si5303   Si       0.74523    0.63797    0.31158    1.000
    Si5304   Si       0.88008    0.64025    0.26264    1.000
    Si5305   Si       0.92874    0.62043    0.31194    1.000
    N5306    N        0.95984    0.64556    0.29323    1.000
    N5307    N        0.90224    0.60644    0.28100    1.000
    N5308    N        0.90364    0.64821    0.33480    1.000
    Si5309   Si       0.88306    0.62536    0.36584    1.000
    N5310    N        0.84357    0.64359    0.37102    1.000
    N5311    N        0.78257    0.64545    0.38215    1.000
    N5312    N        0.81579    0.63267    0.44313    1.000
    Si5313   Si       0.81836    0.65341    0.40508    1.000
    Si5314   Si       0.74398    0.62727    0.38691    1.000
    N5315    N        0.88656    0.64081    0.46459    1.000
    Si5316   Si       0.91312    0.64932    0.43016    1.000
    N5317    N        0.91176    0.62051    0.39748    1.000
    Si5318   Si       0.83353    0.61725    0.51929    1.000
    N5319    N        0.75297    0.64858    0.53464    1.000
    Si5320   Si       0.76051    0.60422    0.53304    1.000
    N5321    N        0.80282    0.60242    0.54675    1.000
    N5322    N        0.79066    0.65328    0.59944    1.000
    N5323    N        0.87570    0.61654    0.53369    1.000
    N5324    N        0.88357    0.61921    0.59552    1.000
    N5325    N        0.94173    0.61209    0.52176    1.000
    Si5326   Si       0.95894    0.64788    0.54137    1.000
    Si5327   Si       0.88144    0.64919    0.56593    1.000
    N5328    N        0.98591    0.65151    0.57545    1.000
    Si5329   Si       0.90158    0.61639    0.50045    1.000
    Si5330   Si       0.78511    0.62156    0.62945    1.000
    N5331    N        0.83497    0.62714    0.72796    1.000
    Si5332   Si       0.82798    0.61156    0.68808    1.000
    N5333    N        0.79930    0.63564    0.66660    1.000
    N5334    N        0.91650    0.64053    0.71803    1.000
    Si5335   Si       0.90167    0.60278    0.69932    1.000
    Si5336   Si       0.88066    0.63816    0.63708    1.000
    N5337    N        0.86904    0.61311    0.67052    1.000
    N5338    N        0.96731    0.61698    0.63408    1.000
    Si5339   Si       0.78190    0.63062    0.82062    1.000
    Si5340   Si       0.84888    0.61156    0.86375    1.000
    N5341    N        0.76154    0.64740    0.85645    1.000
    N5342    N        0.81484    0.60967    0.83491    1.000
    N5343    N        0.75573    0.60485    0.79717    1.000
    Si5344   Si       0.85256    0.60037    0.75699    1.000
    N5345    N        0.86852    0.62541    0.78730    1.000
    N5346    N        0.93363    0.64055    0.78774    1.000
    N5347    N        0.88554    0.63653    0.85146    1.000
    Si5348   Si       0.97725    0.63583    0.79327    1.000
    Si5349   Si       0.89722    0.64734    0.81016    1.000
    N5350    N        0.98517    0.63369    0.74790    1.000
    Si5351   Si       0.94686    0.65301    0.74636    1.000
    N5352    N        0.82163    0.64785    0.95921    1.000
    N5353    N        0.76549    0.60797    0.91886    1.000
    Si5354   Si       0.78351    0.64175    0.89508    1.000
    N5355    N        0.82547    0.63687    0.89454    1.000
    Si5356   Si       0.85571    0.62804    0.92734    1.000
    Si5357   Si       0.79378    0.61540    0.98438    1.000
    Si5358   Si       0.96375    0.61403    0.92651    1.000
    Si5359   Si       0.91169    0.63490    0.98142    1.000
    N5360    N        0.94891    0.63661    0.95899    1.000
    N5361    N        0.93414    0.61899    0.89671    1.000
    Si5362   Si       0.90981    0.65258    0.88469    1.000
    N5363    N        0.88050    0.60891    0.96061    1.000
    N5364    N        0.82662    0.68752    0.02527    1.000
    N5365    N        0.75310    0.69052    0.03582    1.000
    Si5366   Si       0.78961    0.70776    0.01730    1.000
    Si5367   Si       0.85907    0.70112    0.04980    1.000
    N5368    N        0.84586    0.70824    0.09039    1.000
    Si5369   Si       0.76962    0.65200    0.11509    1.000
    N5370    N        0.96395    0.68162    0.05730    1.000
    N5371    N        0.89522    0.67750    0.05021    1.000
    Si5372   Si       0.92997    0.70431    0.04443    1.000
    Si5373   Si       0.95131    0.66611    0.09609    1.000
    N5374    N        0.92639    0.69338    0.11762    1.000
    Si5375   Si       0.84434    0.67990    0.12265    1.000
    N5376    N        0.80240    0.67677    0.13171    1.000
    N5377    N        0.76349    0.67349    0.18301    1.000
    Si5378   Si       0.78392    0.68932    0.21938    1.000
    N5379    N        0.81417    0.70969    0.19913    1.000
    N5380    N        0.86656    0.69765    0.15714    1.000
    N5381    N        0.80112    0.65570    0.24252    1.000
    Si5382   Si       0.92160    0.70443    0.21005    1.000
    N5383    N        0.92559    0.67140    0.18253    1.000
    N5384    N        0.91373    0.66451    0.24486    1.000
    Si5385   Si       0.90057    0.67389    0.14658    1.000
    Si5386   Si       0.81333    0.66921    0.28420    1.000
    N5387    N        0.85514    0.66035    0.29076    1.000
    N5388    N        0.80898    0.71167    0.28295    1.000
    N5389    N        0.86567    0.71310    0.35281    1.000
    N5390    N        0.98398    0.69573    0.33486    1.000
    Si5391   Si       0.87956    0.68248    0.32325    1.000
    Si5392   Si       0.93798    0.67971    0.27634    1.000
    N5393    N        0.90994    0.70518    0.29840    1.000
    N5394    N        0.96811    0.70866    0.26381    1.000
    N5395    N        0.83992    0.68571    0.42507    1.000
    Si5396   Si       0.86483    0.70618    0.39583    1.000
    N5397    N        0.86388    0.70994    0.48420    1.000
    Si5398   Si       0.84766    0.66040    0.46239    1.000
    N5399    N        0.90187    0.68795    0.40753    1.000
    N5400    N        0.94271    0.67550    0.44987    1.000
    Si5401   Si       0.93242    0.71139    0.42560    1.000
    Si5402   Si       0.95756    0.69225    0.48601    1.000
    Si5403   Si       0.82480    0.68208    0.59423    1.000
    Si5404   Si       0.84128    0.69670    0.52147    1.000
    N5405    N        0.85178    0.67988    0.55994    1.000
    Si5406   Si       0.75768    0.66543    0.57508    1.000
    N5407    N        0.76984    0.70600    0.56648    1.000
    N5408    N        0.83131    0.65794    0.50346    1.000
    N5409    N        0.75455    0.71468    0.49864    1.000
    N5410    N        0.98165    0.66427    0.50920    1.000
    N5411    N        0.92295    0.66273    0.56025    1.000
    Si5412   Si       0.93079    0.70600    0.55765    1.000
    N5413    N        0.92735    0.70862    0.51281    1.000
    N5414    N        0.73947    0.67597    0.67011    1.000
    N5415    N        0.85234    0.67042    0.62560    1.000
    N5416    N        0.78875    0.67596    0.72352    1.000
    N5417    N        0.85591    0.68056    0.69478    1.000
    N5418    N        0.80182    0.70547    0.66415    1.000
    Si5419   Si       0.83182    0.67039    0.72977    1.000
    Si5420   Si       0.84567    0.69904    0.65726    1.000
    Si5421   Si       0.78013    0.67335    0.68140    1.000
    N5422    N        0.91123    0.70865    0.71870    1.000
    N5423    N        0.97914    0.66076    0.68616    1.000
    N5424    N        0.91251    0.66236    0.65716    1.000
    N5425    N        0.97207    0.68923    0.63133    1.000
    Si5426   Si       0.90039    0.67363    0.69676    1.000
    Si5427   Si       0.95417    0.65522    0.65022    1.000
    Si5428   Si       0.76365    0.67749    0.76072    1.000
    N5429    N        0.78719    0.66558    0.79741    1.000
    N5430    N        0.84987    0.69995    0.75530    1.000
    Si5431   Si       0.78804    0.70634    0.81127    1.000
    Si5432   Si       0.86185    0.71452    0.79454    1.000
    N5433    N        0.76987    0.71493    0.85157    1.000
    Si5434   Si       0.97589    0.71030    0.79569    1.000
    N5435    N        0.88954    0.69033    0.81603    1.000
    N5436    N        0.96178    0.69591    0.75718    1.000
    Si5437   Si       0.91536    0.71284    0.84226    1.000
    N5438    N        0.99188    0.67049    0.81522    1.000
    Si5439   Si       0.80607    0.68591    0.94414    1.000
    N5440    N        0.77007    0.67540    0.91900    1.000
    N5441    N        0.78511    0.70738    0.97443    1.000
    N5442    N        0.84300    0.71100    0.94286    1.000
    N5443    N        0.88113    0.66749    0.98233    1.000
    N5444    N        0.93161    0.68793    0.87487    1.000
    N5445    N        0.88334    0.66119    0.91717    1.000
    Si5446   Si       0.88259    0.69400    0.94802    1.000
    N5447    N        0.92203    0.71339    0.94345    1.000
    N5448    N        0.97715    0.68674    0.99469    1.000
    Si5449   Si       0.98577    0.66219    0.96120    1.000
    N5450    N        0.79660    0.75162    0.02779    1.000
    Si5451   Si       0.84932    0.74689    0.11040    1.000
    Si5452   Si       0.83600    0.76326    0.01458    1.000
    N5453    N        0.86788    0.73996    0.03101    1.000
    N5454    N        0.92679    0.74112    0.06821    1.000
    Si5455   Si       0.90643    0.75839    0.03247    1.000
    Si5456   Si       0.92484    0.73607    0.11182    1.000
    N5457    N        0.92909    0.72908    0.00909    1.000
    N5458    N        0.88887    0.76021    0.12034    1.000
    N5459    N        0.75768    0.73132    0.15166    1.000
    N5460    N        0.82666    0.74520    0.14731    1.000
    Si5461   Si       0.85218    0.73016    0.18481    1.000
    N5462    N        0.75582    0.71922    0.23332    1.000
    Si5463   Si       0.75173    0.76225    0.24258    1.000
    Si5464   Si       0.79648    0.71263    0.15837    1.000
    Si5465   Si       0.98598    0.73263    0.22982    1.000
    N5466    N        0.95502    0.73179    0.20057    1.000
    Si5467   Si       0.95220    0.76535    0.17361    1.000
    N5468    N        0.95576    0.75571    0.13129    1.000
    N5469    N        0.88664    0.72855    0.21244    1.000
    Si5470   Si       0.80464    0.75333    0.29132    1.000
    Si5471   Si       0.85553    0.75483    0.34408    1.000
    N5472    N        0.81346    0.76112    0.33255    1.000
    N5473    N        0.76433    0.76517    0.28305    1.000
    N5474    N        0.95744    0.75636    0.31168    1.000
    Si5475   Si       0.91954    0.74813    0.29457    1.000
    N5476    N        0.90488    0.76767    0.25903    1.000
    Si5477   Si       0.98348    0.72450    0.30183    1.000
    N5478    N        0.88935    0.77113    0.31797    1.000
    N5479    N        0.80112    0.73713    0.45584    1.000
    Si5480   Si       0.75794    0.73601    0.46166    1.000
    N5481    N        0.85457    0.74662    0.41301    1.000
    Si5482   Si       0.84390    0.73688    0.45632    1.000
    Si5483   Si       0.89834    0.73549    0.49440    1.000
    N5484    N        0.96063    0.72997    0.39641    1.000
    N5485    N        0.92437    0.74203    0.45603    1.000
    Si5486   Si       0.96409    0.75818    0.46374    1.000
    N5487    N        0.98547    0.72174    0.46685    1.000
    Si5488   Si       0.77637    0.73091    0.53022    1.000
    N5489    N        0.81744    0.73537    0.52603    1.000
    Si5490   Si       0.74779    0.74107    0.58570    1.000
    N5491    N        0.82692    0.72541    0.60581    1.000
    N5492    N        0.75498    0.76636    0.54785    1.000
    N5493    N        0.76806    0.75773    0.62145    1.000
    Si5494   Si       0.84477    0.77099    0.52224    1.000
    Si5495   Si       0.86813    0.73489    0.60778    1.000
    N5496    N        0.90592    0.72662    0.58583    1.000
    Si5497   Si       0.97997    0.76314    0.54757    1.000
    N5498    N        0.88697    0.76030    0.52941    1.000
    N5499    N        0.97123    0.72131    0.56476    1.000
    Si5500   Si       0.90642    0.76960    0.56863    1.000
    Si5501   Si       0.80275    0.74212    0.63934    1.000
    N5502    N        0.77254    0.76925    0.71935    1.000
    N5503    N        0.86378    0.76391    0.71720    1.000
    N5504    N        0.82199    0.77426    0.66332    1.000
    N5505    N        0.97574    0.73101    0.69362    1.000
    N5506    N        0.87172    0.73403    0.65112    1.000
    Si5507   Si       0.86426    0.77089    0.67391    1.000
    Si5508   Si       0.87871    0.72846    0.73795    1.000
    Si5509   Si       0.95037    0.72646    0.72759    1.000
    N5510    N        0.82585    0.72581    0.81586    1.000
    Si5511   Si       0.77259    0.75837    0.76192    1.000
    N5512    N        0.76887    0.71838    0.77322    1.000
    Si5513   Si       0.82263    0.76961    0.82092    1.000
    Si5514   Si       0.92795    0.76191    0.78848    1.000
    N5515    N        0.88963    0.74535    0.77773    1.000
    N5516    N        0.94486    0.73240    0.81533    1.000
    N5517    N        0.94990    0.76199    0.75055    1.000
    N5518    N        0.89826    0.73907    0.87304    1.000
    Si5519   Si       0.77130    0.75223    0.87799    1.000
    Si5520   Si       0.76173    0.73468    0.95050    1.000
    N5521    N        0.79089    0.74280    0.91735    1.000
    Si5522   Si       0.82776    0.75250    0.93778    1.000
    N5523    N        0.75284    0.77283    0.96901    1.000
    Si5524   Si       0.95376    0.71886    0.97636    1.000
    N5525    N        0.98242    0.75058    0.96705    1.000
    Si5526   Si       0.87249    0.77383    0.87578    1.000
    Si5527   Si       0.92741    0.72145    0.90187    1.000
    N5528    N        0.95613    0.75596    0.90376    1.000
    N5529    N        0.77258    0.81395    0.03106    1.000
    N5530    N        0.83977    0.80355    0.02991    1.000
    Si5531   Si       0.80517    0.80119    0.05940    1.000
    Si5532   Si       0.76996    0.81729    0.11619    1.000
    N5533    N        0.82735    0.77718    0.08855    1.000
    N5534    N        0.74274    0.78595    0.10334    1.000
    Si5535   Si       0.76149    0.77439    0.01207    1.000
    N5536    N        0.90693    0.79812    0.01787    1.000
    Si5537   Si       0.87947    0.82401    0.03756    1.000
    N5538    N        0.88428    0.82490    0.07973    1.000
    Si5539   Si       0.75917    0.80379    0.18538    1.000
    N5540    N        0.85504    0.81262    0.14116    1.000
    Si5541   Si       0.82005    0.79931    0.23387    1.000
    N5542    N        0.77922    0.78449    0.21965    1.000
    Si5543   Si       0.82501    0.78655    0.16121    1.000
    N5544    N        0.78709    0.80402    0.15362    1.000
    N5545    N        0.84463    0.77522    0.20031    1.000
    Si5546   Si       0.89678    0.79793    0.14050    1.000
    Si5547   Si       0.88884    0.77548    0.21681    1.000
    N5548    N        0.87928    0.81670    0.23727    1.000
    N5549    N        0.97816    0.80222    0.17746    1.000
    N5550    N        0.92549    0.83010    0.13241    1.000
    N5551    N        0.91216    0.78521    0.17895    1.000
    Si5552   Si       0.78848    0.79408    0.35113    1.000
    N5553    N        0.75093    0.81177    0.33947    1.000
    N5554    N        0.83208    0.78022    0.26999    1.000
    N5555    N        0.85712    0.79417    0.36583    1.000
    N5556    N        0.80990    0.83100    0.34772    1.000
    Si5557   Si       0.87492    0.79693    0.27903    1.000
    Si5558   Si       0.90243    0.80167    0.34902    1.000
    Si5559   Si       0.96947    0.79569    0.32567    1.000
    N5560    N        0.93445    0.82183    0.32588    1.000
    N5561    N        0.98866    0.79787    0.36546    1.000
    Si5562   Si       0.83493    0.78307    0.40316    1.000
    Si5563   Si       0.75986    0.79155    0.41887    1.000
    N5564    N        0.83450    0.81705    0.43073    1.000
    N5565    N        0.79298    0.77953    0.39234    1.000
    Si5566   Si       0.85844    0.81693    0.46747    1.000
    N5567    N        0.85338    0.77402    0.47920    1.000
    N5568    N        0.74470    0.77824    0.45853    1.000
    Si5569   Si       0.98366    0.81516    0.49441    1.000
    Si5570   Si       0.91505    0.82468    0.40720    1.000
    N5571    N        0.92425    0.78965    0.38441    1.000
    Si5572   Si       0.96337    0.77367    0.39431    1.000
    N5573    N        0.90158    0.81258    0.44702    1.000
    N5574    N        0.97258    0.79083    0.43278    1.000
    N5575    N        0.83628    0.80739    0.54517    1.000
    Si5576   Si       0.84315    0.81097    0.59112    1.000
    N5577    N        0.80072    0.81593    0.60539    1.000
    N5578    N        0.94647    0.78492    0.57046    1.000
    Si5579   Si       0.96004    0.81956    0.59450    1.000
    N5580    N        0.87128    0.77822    0.59531    1.000
    N5581    N        0.97478    0.77424    0.50492    1.000
    Si5582   Si       0.76447    0.80017    0.62935    1.000
    N5583    N        0.82523    0.81538    0.72310    1.000
    N5584    N        0.77035    0.81519    0.67184    1.000
    Si5585   Si       0.80119    0.79254    0.69500    1.000
    Si5586   Si       0.73832    0.78708    0.70039    1.000
    Si5587   Si       0.95056    0.80254    0.73152    1.000
    N5588    N        0.90839    0.81419    0.72484    1.000
    Si5589   Si       0.86760    0.80506    0.73402    1.000
    N5590    N        0.97298    0.79675    0.69463    1.000
    N5591    N        0.94387    0.82195    0.63479    1.000
    N5592    N        0.88170    0.81059    0.66696    1.000
    Si5593   Si       0.78121    0.81902    0.84476    1.000
    Si5594   Si       0.81581    0.82417    0.77350    1.000
    N5595    N        0.80560    0.78193    0.77985    1.000
    N5596    N        0.86036    0.78494    0.83423    1.000
    N5597    N        0.86142    0.82663    0.77487    1.000
    N5598    N        0.79180    0.77717    0.85132    1.000
    N5599    N        0.74076    0.82344    0.83524    1.000
    N5600    N        0.92341    0.80334    0.80127    1.000
    Si5601   Si       0.88381    0.81537    0.81234    1.000
    N5602    N        0.97438    0.82814    0.75906    1.000
    Si5603   Si       0.99100    0.82639    0.85405    1.000
    Si5604   Si       0.83078    0.81643    0.98647    1.000
    N5605    N        0.85275    0.77815    0.91389    1.000
    N5606    N        0.82626    0.77593    0.97375    1.000
    N5607    N        0.96807    0.81629    0.98982    1.000
    N5608    N        0.86839    0.82961    0.96838    1.000
    Si5609   Si       0.87449    0.81289    0.92656    1.000
    N5610    N        0.91795    0.80455    0.94249    1.000
    Si5611   Si       0.92099    0.81792    0.98254    1.000
    N5612    N        0.89968    0.80786    0.88324    1.000
    Si5613   Si       0.93789    0.79711    0.90581    1.000
    N5614    N        0.96106    0.82874    0.88576    1.000
    Si5615   Si       0.80488    0.87713    0.09020    1.000
    Si5616   Si       0.77115    0.85635    0.01508    1.000
    N5617    N        0.84657    0.87348    0.09973    1.000
    N5618    N        0.78806    0.88194    0.05096    1.000
    Si5619   Si       0.84566    0.82645    0.09864    1.000
    N5620    N        0.80274    0.83191    0.09112    1.000
    Si5621   Si       0.91701    0.85229    0.09475    1.000
    N5622    N        0.94328    0.85306    0.06049    1.000
    N5623    N        0.88304    0.86534    0.02494    1.000
    Si5624   Si       0.92684    0.87837    0.02760    1.000
    N5625    N        0.97836    0.88045    0.01567    1.000
    Si5626   Si       0.98610    0.86034    0.05424    1.000
    N5627    N        0.74850    0.85522    0.12229    1.000
    Si5628   Si       0.76002    0.87282    0.16087    1.000
    Si5629   Si       0.82833    0.87132    0.20526    1.000
    N5630    N        0.80416    0.87881    0.17105    1.000
    N5631    N        0.81098    0.84237    0.23336    1.000
    N5632    N        0.74491    0.84481    0.19257    1.000
    Si5633   Si       0.89921    0.85130    0.22659    1.000
    N5634    N        0.87127    0.87537    0.20271    1.000
    N5635    N        0.98244    0.86770    0.15525    1.000
    N5636    N        0.93636    0.85432    0.20234    1.000
    Si5637   Si       0.95276    0.83622    0.16600    1.000
    Si5638   Si       0.96038    0.86978    0.23822    1.000
    Si5639   Si       0.79032    0.86803    0.33705    1.000
    N5640    N        0.80896    0.87505    0.29751    1.000
    Si5641   Si       0.85326    0.87542    0.30316    1.000
    Si5642   Si       0.78717    0.86879    0.25950    1.000
    N5643    N        0.74941    0.87609    0.32142    1.000
    N5644    N        0.85244    0.88510    0.34737    1.000
    N5645    N        0.75356    0.83767    0.26694    1.000
    Si5646   Si       0.85263    0.83841    0.35344    1.000
    N5647    N        0.86805    0.83412    0.30706    1.000
    N5648    N        0.97705    0.87997    0.30242    1.000
    N5649    N        0.92775    0.86040    0.26325    1.000
    Si5650   Si       0.93779    0.85980    0.30640    1.000
    Si5651   Si       0.89399    0.88655    0.36454    1.000
    N5652    N        0.91749    0.89231    0.32983    1.000
    N5653    N        0.78915    0.88858    0.37468    1.000
    N5654    N        0.76349    0.83613    0.41998    1.000
    N5655    N        0.81537    0.83402    0.48788    1.000
    Si5656   Si       0.76434    0.87991    0.40906    1.000
    Si5657   Si       0.79981    0.84184    0.44618    1.000
    N5658    N        0.79362    0.88556    0.44156    1.000
    N5659    N        0.91697    0.89288    0.46416    1.000
    N5660    N        0.87772    0.85132    0.48640    1.000
    N5661    N        0.89234    0.84330    0.37508    1.000
    N5662    N        0.94340    0.85187    0.42521    1.000
    Si5663   Si       0.91720    0.84713    0.46847    1.000
    Si5664   Si       0.98319    0.83476    0.43336    1.000
    N5665    N        0.94603    0.83929    0.49843    1.000
    N5666    N        0.79205    0.86296    0.55126    1.000
    N5667    N        0.85495    0.87718    0.54182    1.000
    Si5668   Si       0.82458    0.84519    0.52888    1.000
    Si5669   Si       0.77735    0.84740    0.58796    1.000
    N5670    N        0.76739    0.87291    0.62197    1.000
    Si5671   Si       0.86885    0.88125    0.58493    1.000
    N5672    N        0.87302    0.84126    0.60198    1.000
    N5673    N        0.95213    0.85698    0.57610    1.000
    Si5674   Si       0.96375    0.85922    0.53424    1.000
    Si5675   Si       0.86930    0.88975    0.50322    1.000
    N5676    N        0.75257    0.87622    0.69329    1.000
    Si5677   Si       0.75107    0.85684    0.73195    1.000
    N5678    N        0.81718    0.86816    0.67532    1.000
    Si5679   Si       0.77636    0.85950    0.66201    1.000
    Si5680   Si       0.82453    0.86444    0.71776    1.000
    Si5681   Si       0.96669    0.83176    0.67058    1.000
    Si5682   Si       0.89921    0.84764    0.69668    1.000
    N5683    N        0.86842    0.86441    0.72376    1.000
    N5684    N        0.88861    0.87382    0.66025    1.000
    Si5685   Si       0.90083    0.83544    0.63568    1.000
    N5686    N        0.94346    0.86080    0.69578    1.000
    Si5687   Si       0.83810    0.87012    0.82982    1.000
    N5688    N        0.80856    0.83777    0.81886    1.000
    N5689    N        0.78984    0.85523    0.75540    1.000
    N5690    N        0.84335    0.89154    0.79078    1.000
    N5691    N        0.87669    0.85191    0.83848    1.000
    N5692    N        0.91608    0.87178    0.78081    1.000
    N5693    N        0.97305    0.85569    0.82496    1.000
    Si5694   Si       0.87549    0.86958    0.76707    1.000
    Si5695   Si       0.94566    0.84014    0.79295    1.000
    Si5696   Si       0.82040    0.86726    0.89512    1.000
    Si5697   Si       0.75875    0.85919    0.90954    1.000
    N5698    N        0.79432    0.87927    0.92785    1.000
    N5699    N        0.80318    0.84884    0.98801    1.000
    N5700    N        0.85751    0.85035    0.90577    1.000
    N5701    N        0.78737    0.83716    0.88532    1.000
    Si5702   Si       0.80500    0.88875    0.96811    1.000
    N5703    N        0.98372    0.86168    0.93897    1.000
    Si5704   Si       0.96919    0.85902    0.97885    1.000
    N5705    N        0.92473    0.86259    0.98240    1.000
    Si5706   Si       0.89269    0.85280    0.87838    1.000
    Si5707   Si       0.96174    0.87065    0.90205    1.000
    Si5708   Si       0.87752    0.87031    0.98093    1.000
    N5709    N        0.91801    0.88223    0.89992    1.000
    Si5710   Si       0.78594    0.92254    0.03532    1.000
    N5711    N        0.79393    0.91282    0.11295    1.000
    Si5712   Si       0.75077    0.92563    0.11490    1.000
    N5713    N        0.82197    0.94723    0.03014    1.000
    N5714    N        0.86859    0.94020    0.08427    1.000
    Si5715   Si       0.87332    0.90645    0.11032    1.000
    N5716    N        0.92523    0.92073    0.03233    1.000
    Si5717   Si       0.91324    0.93411    0.07201    1.000
    N5718    N        0.91218    0.89736    0.09836    1.000
    N5719    N        0.73957    0.91094    0.15679    1.000
    N5720    N        0.79785    0.94368    0.17835    1.000
    Si5721   Si       0.81684    0.91424    0.14926    1.000
    Si5722   Si       0.78383    0.92550    0.21631    1.000
    N5723    N        0.81991    0.90699    0.23355    1.000
    N5724    N        0.86057    0.91792    0.15026    1.000
    N5725    N        0.75819    0.89424    0.23629    1.000
    Si5726   Si       0.88624    0.91345    0.18511    1.000
    Si5727   Si       0.96436    0.90367    0.17947    1.000
    N5728    N        0.97057    0.90832    0.22328    1.000
    N5729    N        0.87243    0.94391    0.21682    1.000
    N5730    N        0.92714    0.92615    0.17375    1.000
    N5731    N        0.81437    0.94325    0.34139    1.000
    N5732    N        0.74549    0.94237    0.35328    1.000
    Si5733   Si       0.82384    0.91332    0.37013    1.000
    Si5734   Si       0.85061    0.93124    0.25145    1.000
    N5735    N        0.87397    0.90512    0.27914    1.000
    Si5736   Si       0.97578    0.92524    0.30018    1.000
    Si5737   Si       0.90406    0.92302    0.30236    1.000
    N5738    N        0.93862    0.94591    0.28771    1.000
    N5739    N        0.98591    0.93761    0.33925    1.000
    N5740    N        0.84417    0.91512    0.47824    1.000
    N5741    N        0.84164    0.92870    0.40580    1.000
    Si5742   Si       0.81717    0.92121    0.44329    1.000
    Si5743   Si       0.93561    0.89693    0.42590    1.000
    Si5744   Si       0.93166    0.91598    0.49707    1.000
    N5745    N        0.90578    0.91208    0.39727    1.000
    N5746    N        0.97358    0.91735    0.42780    1.000
    Si5747   Si       0.88199    0.94626    0.41140    1.000
    N5748    N        0.78029    0.92740    0.57848    1.000
    Si5749   Si       0.75276    0.91399    0.61016    1.000
    N5750    N        0.78251    0.93392    0.51506    1.000
    Si5751   Si       0.82164    0.93426    0.59591    1.000
    N5752    N        0.84235    0.89932    0.61406    1.000
    Si5753   Si       0.77436    0.90046    0.54314    1.000
    N5754    N        0.85141    0.94839    0.56687    1.000
    N5755    N        0.98114    0.92472    0.58219    1.000
    N5756    N        0.90664    0.90470    0.57965    1.000
    N5757    N        0.89230    0.92828    0.51307    1.000
    Si5758   Si       0.89192    0.93830    0.55782    1.000
    N5759    N        0.96321    0.90069    0.52290    1.000
    Si5760   Si       0.94841    0.89686    0.59519    1.000
    Si5761   Si       0.98884    0.93297    0.53865    1.000
    N5762    N        0.75376    0.93415    0.64656    1.000
    Si5763   Si       0.82599    0.94079    0.71079    1.000
    N5764    N        0.85515    0.92944    0.67963    1.000
    N5765    N        0.81493    0.90591    0.73384    1.000
    Si5766   Si       0.84901    0.89187    0.65578    1.000
    Si5767   Si       0.96150    0.89682    0.71535    1.000
    N5768    N        0.95358    0.89707    0.63956    1.000
    N5769    N        0.90352    0.94732    0.64122    1.000
    Si5770   Si       0.91742    0.91085    0.66328    1.000
    N5771    N        0.93491    0.92717    0.70105    1.000
    N5772    N        0.76729    0.91184    0.79139    1.000
    Si5773   Si       0.86156    0.93350    0.79898    1.000
    Si5774   Si       0.80151    0.89574    0.77283    1.000
    Si5775   Si       0.84679    0.93107    0.87056    1.000
    N5776    N        0.82544    0.89387    0.86346    1.000
    N5777    N        0.96782    0.90986    0.75700    1.000
    Si5778   Si       0.93122    0.91158    0.78068    1.000
    N5779    N        0.94418    0.91876    0.82254    1.000
    N5780    N        0.89927    0.94046    0.77674    1.000
    N5781    N        0.87676    0.93484    0.83937    1.000
    Si5782   Si       0.97820    0.89678    0.83778    1.000
    Si5783   Si       0.91913    0.94719    0.84356    1.000
    N5784    N        0.84696    0.89814    0.96931    1.000
    Si5785   Si       0.84649    0.93498    0.94754    1.000
    N5786    N        0.77554    0.90909    0.99522    1.000
    N5787    N        0.74673    0.94944    0.88587    1.000
    Si5788   Si       0.93634    0.94219    0.99475    1.000
    Si5789   Si       0.97513    0.94572    0.89113    1.000
    N5790    N        0.98019    0.90363    0.88192    1.000
    N5791    N        0.91911    0.94071    0.95311    1.000
    N5792    N        0.86609    0.93077    0.90892    1.000
    Si5793   Si       0.90951    0.92459    0.91293    1.000
    N5794    N        0.97848    0.94185    0.98641    1.000
    N5795    N        0.93234    0.95057    0.88484    1.000
    Si5796   Si       0.83824    0.96503    0.06452    1.000
    N5797    N        0.80693    0.98954    0.08091    1.000
    Si5798   Si       0.76224    0.98678    0.07884    1.000
    N5799    N        0.85928    0.99604    0.04082    1.000
    Si5800   Si       0.83839    0.98107    0.00575    1.000
    N5801    N        0.75360    0.97014    0.11916    1.000
    N5802    N        0.75748    0.94852    0.05409    1.000
    Si5803   Si       0.95071    0.99958    0.09883    1.000
    Si5804   Si       0.90266    0.99764    0.04096    1.000
    N5805    N        0.92367    0.97761    0.07270    1.000
    N5806    N        0.92061    0.98577    0.00038    1.000
    Si5807   Si       0.78261    0.97693    0.15600    1.000
    N5808    N        0.77252    0.96128    0.23962    1.000
    N5809    N        0.74870    0.98868    0.17928    1.000
    N5810    N        0.81414    0.00401    0.14690    1.000
    N5811    N        0.89859    0.99150    0.17208    1.000
    Si5812   Si       0.88437    0.98490    0.21249    1.000
    N5813    N        0.91327    0.99888    0.24286    1.000
    N5814    N        0.95930    0.97050    0.12895    1.000
    N5815    N        0.96098    0.99428    0.19516    1.000
    Si5816   Si       0.93741    0.96960    0.16651    1.000
    Si5817   Si       0.77868    0.97001    0.34583    1.000
    N5818    N        0.77709    0.99039    0.30843    1.000
    Si5819   Si       0.79662    0.98611    0.26709    1.000
    Si5820   Si       0.84559    0.96422    0.31857    1.000
    N5821    N        0.83576    0.96506    0.27549    1.000
    N5822    N        0.84694    0.00730    0.32841    1.000
    Si5823   Si       0.93634    0.98863    0.27822    1.000
    Si5824   Si       0.91139    0.97722    0.34892    1.000
    N5825    N        0.94658    0.00007    0.35991    1.000
    N5826    N        0.97372    0.00835    0.26484    1.000
    N5827    N        0.91112    0.00342    0.31046    1.000
    N5828    N        0.88349    0.94934    0.33047    1.000
    N5829    N        0.74672    0.00768    0.42562    1.000
    N5830    N        0.79528    0.99596    0.37949    1.000
    Si5831   Si       0.78886    0.99308    0.42131    1.000
    N5832    N        0.79158    0.95609    0.44574    1.000
    Si5833   Si       0.76544    0.95698    0.48156    1.000
    N5834    N        0.95047    0.95319    0.48745    1.000
    Si5835   Si       0.86485    0.95320    0.48810    1.000
    N5836    N        0.88814    0.98290    0.38710    1.000
    Si5837   Si       0.97487    0.95601    0.45045    1.000
    N5838    N        0.95097    0.98915    0.43404    1.000
    N5839    N        0.88650    0.96131    0.45153    1.000
    Si5840   Si       0.91298    0.99740    0.45787    1.000
    Si5841   Si       0.84131    0.98580    0.55020    1.000
    N5842    N        0.80010    0.99119    0.56400    1.000
    N5843    N        0.84111    0.98616    0.50667    1.000
    Si5844   Si       0.77271    0.96050    0.54968    1.000
    N5845    N        0.76066    0.99908    0.61959    1.000
    N5846    N        0.76454    0.99703    0.50295    1.000
    N5847    N        0.91408    0.97490    0.55256    1.000
    Si5848   Si       0.94247    0.98003    0.52016    1.000
    N5849    N        0.98102    0.97481    0.53994    1.000
    N5850    N        0.82236    0.95822    0.63298    1.000
    N5851    N        0.84027    0.98120    0.72338    1.000
    Si5852   Si       0.78205    0.97222    0.65507    1.000
    Si5853   Si       0.75160    0.96916    0.71672    1.000
    N5854    N        0.78719    0.95333    0.69612    1.000
    Si5855   Si       0.86242    0.96066    0.65054    1.000
    N5856    N        0.86324    0.00405    0.65900    1.000
    N5857    N        0.99016    0.97234    0.70223    1.000
    Si5858   Si       0.93349    0.97991    0.64286    1.000
    N5859    N        0.97650    0.97658    0.63561    1.000
    N5860    N        0.93056    0.99341    0.68631    1.000
    Si5861   Si       0.94841    0.96699    0.71413    1.000
    Si5862   Si       0.81273    0.98465    0.82984    1.000
    N5863    N        0.76787    0.97635    0.82382    1.000
    Si5864   Si       0.83639    0.99161    0.76571    1.000
    N5865    N        0.82675    0.95981    0.79496    1.000
    N5866    N        0.75708    0.98141    0.75684    1.000
    Si5867   Si       0.75122    0.95559    0.78975    1.000
    N5868    N        0.92139    0.98616    0.82551    1.000
    Si5869   Si       0.90914    0.98333    0.78338    1.000
    N5870    N        0.94223    0.98745    0.75351    1.000
    N5871    N        0.81705    0.96356    0.86889    1.000
    Si5872   Si       0.78668    0.96020    0.90262    1.000
    N5873    N        0.86151    0.96835    0.97139    1.000
    Si5874   Si       0.78594    0.98234    0.95966    1.000
    N5875    N        0.74880    0.96827    0.97573    1.000
    N5876    N        0.77645    0.99959    0.92082    1.000
    N5877    N        0.80644    0.94819    0.93934    1.000
    N5878    N        0.80901    0.00673    0.98662    1.000
    Si5879   Si       0.90092    0.98178    0.96078    1.000
