# CIF file generated by openbabel 3.1.1, see https://openbabel.org
data_I
_chemical_name_common '3.01-70.aims'
_cell_length_a 39.8428
_cell_length_b 39.8428
_cell_length_c 39.8428
_cell_angle_alpha 90
_cell_angle_beta 90
_cell_angle_gamma 90
loop_
    _atom_site_label
    _atom_site_type_symbol
    _atom_site_fract_x
    _atom_site_fract_y
    _atom_site_fract_z
    _atom_site_occupancy
    Si0      Si       0.01882    0.12013    0.06886    1.000
    N1       N        0.00959    0.08285    0.09288    1.000
    Si2      Si       0.99923    0.04886    0.06671    1.000
    N3       N        0.03838    0.04233    0.04809    1.000
    N4       N        0.03626    0.10640    0.03179    1.000
    N5       N        0.98940    0.01436    0.09023    1.000
    Si6      Si       0.02505    0.18645    0.10808    1.000
    Si7      Si       0.00417    0.24407    0.05943    1.000
    N8       N        0.01575    0.20426    0.06685    1.000
    N9       N        0.03650    0.24532    0.02819    1.000
    Si10     Si       0.04338    0.20140    0.03326    1.000
    N11      N        0.04385    0.15121    0.08876    1.000
    N12      N        0.03006    0.17084    0.00552    1.000
    N13      N        0.99784    0.04501    0.15099    1.000
    Si14     Si       0.01292    0.08359    0.13848    1.000
    Si15     Si       0.01258    0.01358    0.12613    1.000
    N16      N        0.98944    0.11567    0.15736    1.000
    N17      N        0.01316    0.21619    0.21006    1.000
    Si18     Si       0.02602    0.24617    0.24142    1.000
    Si19     Si       0.02568    0.22713    0.16357    1.000
    N20      N        0.02046    0.18205    0.15756    1.000
    Si21     Si       0.04101    0.17558    0.19732    1.000
    Si22     Si       0.03547    0.13588    0.24372    1.000
    N23      N        0.00596    0.15108    0.21352    1.000
    N24      N        0.01536    0.05213    0.27436    1.000
    Si25     Si       0.03373    0.04493    0.31342    1.000
    N26      N        0.00663    0.08542    0.33707    1.000
    Si27     Si       0.03957    0.02118    0.25571    1.000
    N28      N        0.00359    0.02091    0.33501    1.000
    Si29     Si       0.04400    0.09352    0.35870    1.000
    Si30     Si       0.99198    0.11309    0.30687    1.000
    N31      N        0.02663    0.13403    0.28732    1.000
    N32      N        0.02741    0.18975    0.33232    1.000
    Si33     Si       0.02630    0.23014    0.31991    1.000
    N34      N        0.03887    0.22510    0.27726    1.000
    Si35     Si       0.99208    0.17182    0.35134    1.000
    N36      N        0.03910    0.09473    0.40230    1.000
    N37      N        0.00184    0.03764    0.39871    1.000
    N38      N        0.01678    0.05003    0.46105    1.000
    Si39     Si       0.00577    0.07478    0.42446    1.000
    Si40     Si       0.99330    0.04537    0.49809    1.000
    N41      N        0.02920    0.17423    0.46025    1.000
    N42      N        0.02261    0.22281    0.41339    1.000
    Si43     Si       0.99129    0.18620    0.47600    1.000
    N44      N        0.00126    0.15911    0.39281    1.000
    Si45     Si       0.03106    0.17882    0.41507    1.000
    Si46     Si       0.02396    0.03413    0.58358    1.000
    N47      N        0.01768    0.12846    0.56993    1.000
    N48      N        0.99757    0.08550    0.51547    1.000
    N49      N        0.98636    0.05742    0.57700    1.000
    Si50     Si       0.98942    0.09606    0.55773    1.000
    Si51     Si       0.00180    0.25492    0.51332    1.000
    Si52     Si       0.01602    0.24689    0.58850    1.000
    Si53     Si       0.00189    0.16416    0.58617    1.000
    N54      N        0.02122    0.20288    0.58113    1.000
    Si55     Si       0.00678    0.02751    0.70875    1.000
    N56      N        0.01174    0.02857    0.66373    1.000
    Si57     Si       0.00467    0.09731    0.69199    1.000
    N58      N        0.04326    0.08885    0.67431    1.000
    N59      N        0.04348    0.02120    0.73289    1.000
    N60      N        0.01980    0.13190    0.71572    1.000
    N61      N        0.99137    0.06622    0.71913    1.000
    Si62     Si       0.01738    0.17546    0.70637    1.000
    Si63     Si       0.02965    0.20004    0.63255    1.000
    N64      N        0.04200    0.19263    0.67567    1.000
    N65      N        0.02644    0.19265    0.74681    1.000
    N66      N        0.00441    0.23692    0.63194    1.000
    N67      N        0.00476    0.16312    0.62813    1.000
    Si68     Si       0.00955    0.09690    0.82293    1.000
    N69      N        0.00432    0.10072    0.77844    1.000
    Si70     Si       0.03526    0.12074    0.75591    1.000
    N71      N        0.99980    0.05726    0.83776    1.000
    Si72     Si       0.99678    0.21299    0.76818    1.000
    N73      N        0.02286    0.24841    0.83202    1.000
    N74      N        0.00549    0.25694    0.76573    1.000
    N75      N        0.02298    0.08636    0.90006    1.000
    N76      N        0.01819    0.12567    0.96275    1.000
    Si77     Si       0.02423    0.08654    0.94471    1.000
    Si78     Si       0.99873    0.05063    0.87917    1.000
    Si79     Si       0.00217    0.12572    0.88857    1.000
    N80      N        0.99753    0.04961    0.94756    1.000
    Si81     Si       0.02156    0.01576    0.93390    1.000
    N82      N        0.01023    0.01092    0.89141    1.000
    Si83     Si       0.04411    0.13138    0.99722    1.000
    N84      N        0.98980    0.20211    0.87649    1.000
    N85      N        0.03557    0.15362    0.89133    1.000
    Si86     Si       0.00203    0.16470    0.97065    1.000
    N87      N        0.00759    0.19614    0.94137    1.000
    Si88     Si       0.02410    0.19496    0.90144    1.000
    Si89     Si       0.03186    0.31123    0.07593    1.000
    N90      N        0.03519    0.35180    0.10021    1.000
    N91      N        0.01780    0.26976    0.09470    1.000
    Si92     Si       0.04036    0.28118    0.00861    1.000
    Si93     Si       0.99317    0.34416    0.11209    1.000
    N94      N        0.04358    0.31525    0.03457    1.000
    N95      N        0.03848    0.38736    0.03315    1.000
    N96      N        0.00069    0.48709    0.11161    1.000
    Si97     Si       0.03486    0.49099    0.08515    1.000
    N98      N        0.99887    0.42525    0.07817    1.000
    Si99     Si       0.03928    0.41357    0.06918    1.000
    Si100    Si       0.99811    0.44374    0.11754    1.000
    N101     N        0.01394    0.31971    0.20712    1.000
    N102     N        0.04155    0.26839    0.15881    1.000
    Si103    Si       0.04790    0.29521    0.19331    1.000
    N104     N        0.98900    0.46893    0.21263    1.000
    N105     N        0.04246    0.50697    0.18826    1.000
    Si106    Si       0.03294    0.47088    0.21186    1.000
    N107     N        0.03885    0.43495    0.12967    1.000
    N108     N        0.01302    0.37171    0.30783    1.000
    N109     N        0.00212    0.27877    0.25615    1.000
    N110     N        0.99641    0.33063    0.36711    1.000
    Si111    Si       0.01024    0.32134    0.24929    1.000
    N112     N        0.01278    0.48972    0.29334    1.000
    N113     N        0.03510    0.42557    0.27087    1.000
    Si114    Si       0.99827    0.40806    0.28814    1.000
    Si115    Si       0.04644    0.46544    0.28456    1.000
    Si116    Si       0.03845    0.32674    0.37928    1.000
    N117     N        0.03301    0.29186    0.40505    1.000
    Si118    Si       0.02064    0.29989    0.44736    1.000
    N119     N        0.00880    0.26529    0.47114    1.000
    N120     N        0.04754    0.36232    0.40659    1.000
    N121     N        0.01563    0.50080    0.41116    1.000
    Si122    Si       0.04063    0.40603    0.40917    1.000
    Si123    Si       0.99959    0.46981    0.38496    1.000
    N124     N        0.02768    0.43744    0.37778    1.000
    Si125    Si       0.00934    0.39653    0.47619    1.000
    N126     N        0.00486    0.50242    0.48536    1.000
    N127     N        0.00457    0.40852    0.43480    1.000
    Si128    Si       0.03067    0.30773    0.55902    1.000
    N129     N        0.00725    0.29114    0.59455    1.000
    N130     N        0.99796    0.33123    0.54625    1.000
    Si131    Si       0.02284    0.32495    0.62115    1.000
    N132     N        0.99653    0.36130    0.62367    1.000
    N133     N        0.03112    0.26297    0.54651    1.000
    Si134    Si       0.00525    0.42815    0.55438    1.000
    N135     N        0.03592    0.42535    0.58374    1.000
    N136     N        0.02088    0.42068    0.51394    1.000
    Si137    Si       0.99459    0.50195    0.58012    1.000
    N138     N        0.01685    0.48213    0.61647    1.000
    Si139    Si       0.04524    0.30127    0.67180    1.000
    N140     N        0.99506    0.37086    0.68862    1.000
    Si141    Si       0.00403    0.27376    0.72621    1.000
    Si142    Si       0.02249    0.37691    0.65612    1.000
    N143     N        0.00129    0.30242    0.66130    1.000
    N144     N        0.04353    0.28729    0.71268    1.000
    Si145    Si       0.01446    0.46506    0.71145    1.000
    N146     N        0.04381    0.41337    0.65047    1.000
    Si147    Si       0.02238    0.44051    0.62306    1.000
    N148     N        0.00466    0.42609    0.72916    1.000
    N149     N        0.02956    0.31627    0.81136    1.000
    N150     N        0.01840    0.36386    0.76654    1.000
    Si151    Si       0.02995    0.27514    0.79818    1.000
    N152     N        0.00570    0.43751    0.80782    1.000
    Si153    Si       0.99839    0.47409    0.78644    1.000
    Si154    Si       0.04037    0.49676    0.84448    1.000
    Si155    Si       0.03593    0.40142    0.75001    1.000
    Si156    Si       0.04790    0.42900    0.81827    1.000
    N157     N        0.01892    0.48466    0.74982    1.000
    N158     N        0.04815    0.41102    0.85987    1.000
    Si159    Si       0.01901    0.37961    0.87022    1.000
    N160     N        0.03032    0.33774    0.87181    1.000
    N161     N        0.00085    0.38732    0.90780    1.000
    N162     N        0.02632    0.27619    0.91194    1.000
    Si163    Si       0.00446    0.30718    0.89164    1.000
    N164     N        0.00415    0.28414    0.98514    1.000
    Si165    Si       0.00089    0.35806    0.93848    1.000
    Si166    Si       0.02720    0.29453    0.95050    1.000
    N167     N        0.03777    0.33659    0.94416    1.000
    N168     N        0.05132    0.41221    0.96999    1.000
    Si169    Si       0.01818    0.39702    0.99653    1.000
    N170     N        0.01378    0.47432    0.96025    1.000
    N171     N        0.01532    0.49322    0.88243    1.000
    N172     N        0.03078    0.53244    0.06851    1.000
    N173     N        0.00652    0.59750    0.08524    1.000
    Si174    Si       0.03155    0.56554    0.09825    1.000
    Si175    Si       0.00260    0.52721    0.03367    1.000
    Si176    Si       0.01080    0.61109    0.04224    1.000
    N177     N        0.00087    0.60041    0.00087    1.000
    Si178    Si       0.03752    0.57405    0.99747    1.000
    N179     N        0.04984    0.58964    0.03516    1.000
    N180     N        0.01579    0.53727    0.99353    1.000
    N181     N        0.01907    0.74753    0.01508    1.000
    N182     N        0.03060    0.68542    0.09859    1.000
    N183     N        0.01601    0.65202    0.04268    1.000
    Si184    Si       0.99044    0.68232    0.11707    1.000
    N185     N        0.01605    0.61201    0.14965    1.000
    N186     N        0.01995    0.54440    0.13696    1.000
    Si187    Si       0.01683    0.57866    0.23696    1.000
    Si188    Si       0.00429    0.57314    0.17331    1.000
    N189     N        0.04327    0.57217    0.20059    1.000
    N190     N        0.01002    0.68777    0.15842    1.000
    Si191    Si       0.01338    0.64744    0.17539    1.000
    Si192    Si       0.98958    0.70724    0.19455    1.000
    Si193    Si       0.04264    0.70666    0.13556    1.000
    Si194    Si       0.04378    0.74551    0.22696    1.000
    N195     N        0.00980    0.74600    0.19953    1.000
    N196     N        0.99580    0.68315    0.23064    1.000
    N197     N        0.04745    0.74840    0.14157    1.000
    Si198    Si       0.02722    0.52975    0.29904    1.000
    Si199    Si       0.01515    0.59174    0.34139    1.000
    N200     N        0.00176    0.55675    0.32138    1.000
    N201     N        0.03455    0.54682    0.26014    1.000
    N202     N        0.02444    0.61913    0.24745    1.000
    Si203    Si       0.02378    0.69429    0.26283    1.000
    N204     N        0.02679    0.73696    0.26613    1.000
    N205     N        0.03445    0.73687    0.34299    1.000
    N206     N        0.00667    0.67985    0.29836    1.000
    Si207    Si       0.02570    0.75549    0.30522    1.000
    N208     N        0.00832    0.56884    0.38306    1.000
    N209     N        0.01643    0.56125    0.44833    1.000
    Si210    Si       0.02389    0.58401    0.48762    1.000
    Si211    Si       0.03700    0.57428    0.41315    1.000
    N212     N        0.02847    0.62541    0.47500    1.000
    Si213    Si       0.99487    0.52212    0.44482    1.000
    Si214    Si       0.04623    0.51246    0.49052    1.000
    N215     N        0.99182    0.68842    0.46573    1.000
    Si216    Si       0.04255    0.65004    0.40405    1.000
    N217     N        0.99888    0.64540    0.40949    1.000
    N218     N        0.03519    0.74431    0.46515    1.000
    Si219    Si       0.02115    0.71099    0.44211    1.000
    N220     N        0.00345    0.72771    0.40786    1.000
    Si221    Si       0.99466    0.64569    0.45308    1.000
    N222     N        0.03138    0.58455    0.57200    1.000
    Si223    Si       0.01264    0.55722    0.54602    1.000
    Si224    Si       0.01130    0.61904    0.55090    1.000
    N225     N        0.03313    0.52163    0.57081    1.000
    N226     N        0.99401    0.59152    0.52061    1.000
    N227     N        0.04576    0.55423    0.51281    1.000
    N228     N        0.98947    0.63709    0.58304    1.000
    N229     N        0.00901    0.73997    0.58102    1.000
    Si230    Si       0.00509    0.66375    0.61235    1.000
    Si231    Si       0.03349    0.72976    0.50566    1.000
    N232     N        0.04683    0.66599    0.60620    1.000
    N233     N        0.99177    0.72981    0.51772    1.000
    N234     N        0.03516    0.53163    0.64654    1.000
    N235     N        0.01507    0.59025    0.69036    1.000
    Si236    Si       0.99589    0.51142    0.64762    1.000
    Si237    Si       0.02216    0.62777    0.70772    1.000
    Si238    Si       0.04696    0.57099    0.66356    1.000
    N239     N        0.03881    0.72237    0.64290    1.000
    Si240    Si       0.99946    0.73099    0.62364    1.000
    N241     N        0.01093    0.65210    0.65452    1.000
    Si242    Si       0.03173    0.72237    0.68530    1.000
    N243     N        0.99055    0.71364    0.68604    1.000
    Si244    Si       0.03003    0.60434    0.83821    1.000
    N245     N        0.99968    0.57490    0.84684    1.000
    N246     N        0.03025    0.62272    0.75027    1.000
    N247     N        0.01977    0.50962    0.80816    1.000
    Si248    Si       0.04596    0.51404    0.76851    1.000
    N249     N        0.01369    0.63676    0.81528    1.000
    N250     N        0.00299    0.74232    0.81459    1.000
    Si251    Si       0.01530    0.68035    0.82063    1.000
    Si252    Si       0.01053    0.73845    0.85701    1.000
    Si253    Si       0.00020    0.64235    0.77320    1.000
    N254     N        0.99816    0.69514    0.85774    1.000
    N255     N        0.99533    0.68566    0.78037    1.000
    N256     N        0.04172    0.61845    0.87691    1.000
    Si257    Si       0.01207    0.51655    0.95603    1.000
    Si258    Si       0.01055    0.62588    0.90417    1.000
    N259     N        0.99698    0.59396    0.93142    1.000
    Si260    Si       0.99567    0.62283    0.96443    1.000
    N261     N        0.05122    0.52392    0.93646    1.000
    N262     N        0.01091    0.65824    0.93414    1.000
    Si263    Si       0.04578    0.68390    0.93756    1.000
    N264     N        0.04449    0.74148    0.88222    1.000
    N265     N        0.03396    0.72455    0.94737    1.000
    Si266    Si       0.00492    0.73986    0.97398    1.000
    Si267    Si       0.00566    0.81354    0.06671    1.000
    N268     N        0.04693    0.82175    0.05809    1.000
    Si269    Si       0.00082    0.87645    0.12246    1.000
    N270     N        0.99323    0.77304    0.07992    1.000
    N271     N        0.03189    0.88641    0.01322    1.000
    N272     N        0.02607    0.93386    0.05990    1.000
    N273     N        0.04310    0.87230    0.13204    1.000
    N274     N        0.02371    0.84589    0.21409    1.000
    Si275    Si       0.01339    0.76821    0.16134    1.000
    N276     N        0.02618    0.81013    0.16513    1.000
    Si277    Si       0.99485    0.83546    0.18495    1.000
    Si278    Si       0.00027    0.86201    0.24694    1.000
    N279     N        0.01763    0.97493    0.14311    1.000
    N280     N        0.02764    0.98434    0.23629    1.000
    Si281    Si       0.99033    0.96934    0.21823    1.000
    N282     N        0.00794    0.84708    0.33338    1.000
    Si283    Si       0.00498    0.81456    0.30438    1.000
    Si284    Si       0.04201    0.85938    0.35497    1.000
    N285     N        0.04474    0.79446    0.30153    1.000
    N286     N        0.02077    0.89186    0.26906    1.000
    N287     N        0.01773    0.95568    0.30447    1.000
    Si288    Si       0.99664    0.92497    0.28111    1.000
    Si289    Si       0.99483    0.97840    0.33501    1.000
    N290     N        0.04439    0.90369    0.35320    1.000
    N291     N        0.00313    0.80569    0.44144    1.000
    N292     N        0.01209    0.86871    0.46326    1.000
    N293     N        0.03344    0.85186    0.39569    1.000
    Si294    Si       0.04002    0.78186    0.44373    1.000
    Si295    Si       0.99844    0.82398    0.40096    1.000
    Si296    Si       0.04726    0.84782    0.47868    1.000
    Si297    Si       0.02133    0.75599    0.37804    1.000
    N298     N        0.00746    0.96410    0.37475    1.000
    N299     N        0.03596    0.99078    0.43434    1.000
    N300     N        0.02842    0.93841    0.48108    1.000
    N301     N        0.03789    0.92040    0.41629    1.000
    Si302    Si       0.01335    0.92160    0.37911    1.000
    Si303    Si       0.99724    0.90888    0.47333    1.000
    Si304    Si       0.00367    0.99410    0.40551    1.000
    Si305    Si       0.04877    0.95099    0.44446    1.000
    N306     N        0.02981    0.84418    0.51967    1.000
    N307     N        0.03350    0.85704    0.60303    1.000
    Si308    Si       0.04243    0.76776    0.58776    1.000
    Si309    Si       0.01810    0.96210    0.57470    1.000
    N310     N        0.02520    0.92950    0.60097    1.000
    N311     N        0.01469    0.99584    0.60055    1.000
    Si312    Si       0.01106    0.96188    0.51249    1.000
    N313     N        0.04399    0.96561    0.54105    1.000
    N314     N        0.99901    0.00555    0.51276    1.000
    N315     N        0.03245    0.78832    0.62508    1.000
    N316     N        0.04609    0.87351    0.72251    1.000
    Si317    Si       0.01432    0.84546    0.70922    1.000
    N318     N        0.01466    0.82997    0.66875    1.000
    N319     N        0.02082    0.81140    0.73552    1.000
    N320     N        0.03112    0.76710    0.68626    1.000
    Si321    Si       0.04414    0.82772    0.63553    1.000
    Si322    Si       0.03025    0.76369    0.73267    1.000
    Si323    Si       0.99858    0.78939    0.66685    1.000
    N324     N        0.01461    0.94719    0.72326    1.000
    Si325    Si       0.04531    0.97633    0.73853    1.000
    Si326    Si       0.99306    0.99836    0.63870    1.000
    N327     N        0.03567    0.91212    0.66805    1.000
    Si328    Si       0.02255    0.90680    0.70762    1.000
    Si329    Si       0.00518    0.92355    0.63921    1.000
    N330     N        0.00508    0.81301    0.80651    1.000
    Si331    Si       0.03539    0.81209    0.77737    1.000
    N332     N        0.03197    0.86883    0.83315    1.000
    Si333    Si       0.99566    0.85537    0.81486    1.000
    Si334    Si       0.04875    0.84299    0.86471    1.000
    Si335    Si       0.01446    0.97657    0.86236    1.000
    N336     N        0.01331    0.93150    0.85864    1.000
    Si337    Si       0.04666    0.90677    0.84981    1.000
    N338     N        0.01616    0.82525    0.88669    1.000
    N339     N        0.01885    0.85420    0.94808    1.000
    Si340    Si       0.01357    0.81200    0.93004    1.000
    N341     N        0.99548    0.77805    0.95366    1.000
    Si342    Si       0.04701    0.86814    0.97755    1.000
    N343     N        0.02658    0.98540    0.96544    1.000
    Si344    Si       0.02832    0.88917    0.91844    1.000
    N345     N        0.00859    0.92168    0.94468    1.000
    Si346    Si       0.99853    0.95358    0.97201    1.000
    Si347    Si       0.06749    0.02998    0.07767    1.000
    N348     N        0.09087    0.06444    0.09331    1.000
    N349     N        0.09733    0.07078    0.02729    1.000
    Si350    Si       0.05370    0.06890    0.01762    1.000
    N351     N        0.05493    0.01986    0.11863    1.000
    N352     N        0.10510    0.12587    0.06392    1.000
    Si353    Si       0.08569    0.16130    0.07809    1.000
    N354     N        0.08542    0.19222    0.04422    1.000
    N355     N        0.05696    0.21885    0.11862    1.000
    Si356    Si       0.09140    0.07929    0.23770    1.000
    Si357    Si       0.07305    0.10762    0.18551    1.000
    Si358    Si       0.07840    0.05387    0.13484    1.000
    N359     N        0.05666    0.10323    0.22559    1.000
    N360     N        0.05375    0.08541    0.15318    1.000
    N361     N        0.07796    0.03927    0.24646    1.000
    N362     N        0.10684    0.25687    0.13333    1.000
    N363     N        0.07175    0.21443    0.18256    1.000
    N364     N        0.06016    0.17207    0.23656    1.000
    Si365    Si       0.09140    0.24368    0.20861    1.000
    Si366    Si       0.09846    0.17866    0.20345    1.000
    Si367    Si       0.09538    0.21230    0.14120    1.000
    N368     N        0.07465    0.14928    0.18080    1.000
    N369     N        0.06662    0.06227    0.33803    1.000
    N370     N        0.06292    0.13203    0.34634    1.000
    N371     N        0.05721    0.00954    0.29667    1.000
    Si372    Si       0.10848    0.05402    0.33985    1.000
    Si373    Si       0.10514    0.01538    0.27189    1.000
    N374     N        0.09038    0.17188    0.29338    1.000
    Si375    Si       0.07356    0.20100    0.26468    1.000
    Si376    Si       0.05039    0.16022    0.31426    1.000
    N377     N        0.05183    0.25041    0.35134    1.000
    Si378    Si       0.05308    0.02669    0.45438    1.000
    N379     N        0.08281    0.04863    0.43063    1.000
    Si380    Si       0.07815    0.09173    0.42671    1.000
    N381     N        0.07816    0.11499    0.46315    1.000
    N382     N        0.10595    0.11280    0.39722    1.000
    N383     N        0.07265    0.17536    0.40520    1.000
    Si384    Si       0.05039    0.25257    0.39541    1.000
    Si385    Si       0.06501    0.15690    0.47501    1.000
    N386     N        0.09091    0.24275    0.41070    1.000
    Si387    Si       0.09183    0.14835    0.37915    1.000
    Si388    Si       0.09808    0.20287    0.42637    1.000
    N389     N        0.08995    0.19354    0.46796    1.000
    N390     N        0.08375    0.09810    0.55185    1.000
    Si391    Si       0.08081    0.06110    0.57613    1.000
    N392     N        0.05440    0.03281    0.55254    1.000
    Si393    Si       0.09504    0.10744    0.50731    1.000
    N394     N        0.05025    0.05919    0.60937    1.000
    Si395    Si       0.05843    0.13353    0.55693    1.000
    N396     N        0.06685    0.14706    0.51742    1.000
    N397     N        0.08788    0.15890    0.57760    1.000
    Si398    Si       0.09758    0.18000    0.61323    1.000
    N399     N        0.09785    0.25604    0.57737    1.000
    N400     N        0.08476    0.25532    0.50128    1.000
    Si401    Si       0.09234    0.25288    0.62090    1.000
    N402     N        0.08133    0.02953    0.66804    1.000
    Si403    Si       0.07012    0.11441    0.69978    1.000
    N404     N        0.06256    0.09161    0.73741    1.000
    N405     N        0.10726    0.09894    0.68024    1.000
    Si406    Si       0.04712    0.05152    0.65103    1.000
    N407     N        0.09674    0.15528    0.64722    1.000
    Si408    Si       0.08414    0.18174    0.67847    1.000
    N409     N        0.08276    0.15353    0.71368    1.000
    N410     N        0.07243    0.21327    0.62232    1.000
    N411     N        0.08625    0.03835    0.78972    1.000
    N412     N        0.07373    0.04976    0.86119    1.000
    Si413    Si       0.09998    0.05788    0.82631    1.000
    N414     N        0.05018    0.10469    0.83536    1.000
    Si415    Si       0.08201    0.13157    0.81829    1.000
    Si416    Si       0.07435    0.05163    0.74788    1.000
    N417     N        0.06274    0.14649    0.78288    1.000
    N418     N        0.09264    0.15573    0.85175    1.000
    N419     N        0.08428    0.22017    0.82453    1.000
    Si420    Si       0.09639    0.23959    0.78702    1.000
    Si421    Si       0.06048    0.24341    0.85253    1.000
    N422     N        0.09568    0.21247    0.75112    1.000
    Si423    Si       0.06962    0.17847    0.75250    1.000
    Si424    Si       0.05736    0.08659    0.87545    1.000
    N425     N        0.06297    0.02712    0.92721    1.000
    Si426    Si       0.08601    0.04624    0.95838    1.000
    N427     N        0.09026    0.10638    0.89823    1.000
    Si428    Si       0.07426    0.01428    0.88449    1.000
    N429     N        0.05156    0.07074    0.97503    1.000
    N430     N        0.08877    0.01458    0.98830    1.000
    N431     N        0.08752    0.13072    0.99190    1.000
    Si432    Si       0.07840    0.14900    0.89421    1.000
    N433     N        0.09018    0.17263    0.92795    1.000
    N434     N        0.05789    0.21844    0.89051    1.000
    Si435    Si       0.09533    0.21524    0.91410    1.000
    Si436    Si       0.10819    0.15284    0.96078    1.000
    N437     N        0.07293    0.29698    0.08959    1.000
    Si438    Si       0.06190    0.35149    0.02207    1.000
    Si439    Si       0.06955    0.36992    0.11608    1.000
    N440     N        0.10295    0.35059    0.04431    1.000
    Si441    Si       0.10512    0.32205    0.07829    1.000
    Si442    Si       0.05887    0.26381    0.11692    1.000
    N443     N        0.10657    0.35088    0.11141    1.000
    Si444    Si       0.08007    0.44656    0.10800    1.000
    N445     N        0.07809    0.40334    0.08905    1.000
    Si446    Si       0.08842    0.45582    0.03455    1.000
    N447     N        0.05787    0.45660    0.06684    1.000
    N448     N        0.06922    0.49319    0.11729    1.000
    N449     N        0.10404    0.41633    0.02434    1.000
    N450     N        0.06555    0.37967    0.15703    1.000
    N451     N        0.08149    0.31718    0.17771    1.000
    N452     N        0.07924    0.37274    0.22853    1.000
    Si453    Si       0.08619    0.35988    0.18781    1.000
    N454     N        0.06156    0.27077    0.23034    1.000
    N455     N        0.09889    0.44005    0.15219    1.000
    Si456    Si       0.06544    0.41303    0.24007    1.000
    Si457    Si       0.06158    0.42213    0.16464    1.000
    N458     N        0.04880    0.43453    0.20354    1.000
    N459     N        0.05789    0.48719    0.24582    1.000
    Si460    Si       0.07259    0.28619    0.34003    1.000
    Si461    Si       0.08361    0.29358    0.26624    1.000
    N462     N        0.09474    0.27431    0.30339    1.000
    N463     N        0.08674    0.37245    0.29891    1.000
    N464     N        0.05429    0.32535    0.33967    1.000
    Si465    Si       0.05080    0.35192    0.30510    1.000
    N466     N        0.10045    0.29611    0.37434    1.000
    N467     N        0.05034    0.32448    0.27147    1.000
    Si468    Si       0.09745    0.49777    0.32047    1.000
    Si469    Si       0.06571    0.44689    0.35930    1.000
    N470     N        0.07366    0.46031    0.31916    1.000
    N471     N        0.08409    0.40809    0.36052    1.000
    N472     N        0.09957    0.43539    0.25416    1.000
    Si473    Si       0.10036    0.47821    0.24579    1.000
    Si474    Si       0.06889    0.35481    0.44366    1.000
    N475     N        0.05949    0.31330    0.46053    1.000
    Si476    Si       0.08372    0.29961    0.49372    1.000
    N477     N        0.04985    0.37759    0.47610    1.000
    N478     N        0.07801    0.48072    0.38468    1.000
    N479     N        0.07449    0.42014    0.42928    1.000
    Si480    Si       0.05825    0.50657    0.41286    1.000
    N481     N        0.09123    0.43304    0.49383    1.000
    Si482    Si       0.08373    0.34338    0.55978    1.000
    N483     N        0.06824    0.30798    0.53387    1.000
    Si484    Si       0.07317    0.26410    0.54256    1.000
    N485     N        0.07547    0.38333    0.54347    1.000
    N486     N        0.09730    0.38106    0.60403    1.000
    N487     N        0.05526    0.33163    0.59155    1.000
    N488     N        0.07076    0.49536    0.52235    1.000
    Si489    Si       0.07823    0.41038    0.57916    1.000
    Si490    Si       0.06182    0.40345    0.50781    1.000
    Si491    Si       0.09966    0.46232    0.52660    1.000
    N492     N        0.10058    0.44657    0.56981    1.000
    Si493    Si       0.09034    0.35632    0.63964    1.000
    N494     N        0.06623    0.27982    0.64240    1.000
    Si495    Si       0.09898    0.36545    0.71988    1.000
    Si496    Si       0.07648    0.29342    0.74061    1.000
    N497     N        0.05026    0.34305    0.65514    1.000
    N498     N        0.07842    0.33636    0.75035    1.000
    Si499    Si       0.06674    0.42151    0.68521    1.000
    N500     N        0.06426    0.39324    0.71680    1.000
    Si501    Si       0.09147    0.47764    0.67317    1.000
    N502     N        0.08559    0.48412    0.62910    1.000
    N503     N        0.05360    0.46438    0.69074    1.000
    N504     N        0.08346    0.34685    0.81982    1.000
    N505     N        0.07768    0.28175    0.85728    1.000
    N506     N        0.07055    0.27141    0.77813    1.000
    Si507    Si       0.06000    0.31975    0.84559    1.000
    Si508    Si       0.05458    0.34884    0.78623    1.000
    N509     N        0.06649    0.46726    0.82643    1.000
    N510     N        0.06320    0.40644    0.78435    1.000
    Si511    Si       0.09921    0.48421    0.80626    1.000
    N512     N        0.08673    0.49989    0.76753    1.000
    Si513    Si       0.08032    0.34997    0.94183    1.000
    N514     N        0.09067    0.35944    0.98408    1.000
    N515     N        0.06606    0.28334    0.97453    1.000
    N516     N        0.10999    0.31861    0.93157    1.000
    Si517    Si       0.10473    0.28387    0.95774    1.000
    Si518    Si       0.05121    0.45315    0.95953    1.000
    N519     N        0.06441    0.45789    0.91672    1.000
    Si520    Si       0.05291    0.49669    0.90334    1.000
    Si521    Si       0.07829    0.42032    0.89150    1.000
    N522     N        0.08779    0.38506    0.91672    1.000
    N523     N        0.07531    0.46669    0.99386    1.000
    Si524    Si       0.09204    0.40240    0.98328    1.000
    N525     N        0.07271    0.58125    0.10423    1.000
    Si526    Si       0.08171    0.59731    0.06345    1.000
    N527     N        0.08610    0.64225    0.06754    1.000
    Si528    Si       0.06019    0.74052    0.02667    1.000
    N529     N        0.06462    0.69769    0.03655    1.000
    Si530    Si       0.08921    0.69264    0.99804    1.000
    N531     N        0.08225    0.75999    0.05964    1.000
    Si532    Si       0.04952    0.66807    0.06357    1.000
    Si533    Si       0.05447    0.52068    0.14968    1.000
    Si534    Si       0.08379    0.58458    0.20449    1.000
    N535     N        0.09720    0.54407    0.21978    1.000
    N536     N        0.09568    0.53807    0.15337    1.000
    N537     N        0.09442    0.61241    0.23732    1.000
    Si538    Si       0.05541    0.52993    0.22421    1.000
    Si539    Si       0.10414    0.57789    0.13438    1.000
    N540     N        0.10364    0.60074    0.17070    1.000
    N541     N        0.07316    0.72267    0.20454    1.000
    N542     N        0.04978    0.65261    0.19761    1.000
    N543     N        0.08084    0.68937    0.14733    1.000
    Si544    Si       0.06155    0.63977    0.23822    1.000
    Si545    Si       0.08026    0.68323    0.19062    1.000
    Si546    Si       0.10462    0.75092    0.21469    1.000
    N547     N        0.06339    0.52638    0.32710    1.000
    Si548    Si       0.08453    0.56370    0.33176    1.000
    N549     N        0.05767    0.59554    0.33944    1.000
    N550     N        0.09989    0.56967    0.29012    1.000
    Si551    Si       0.07723    0.63527    0.34203    1.000
    N552     N        0.08466    0.63914    0.29991    1.000
    N553     N        0.09275    0.70544    0.32227    1.000
    Si554    Si       0.09537    0.67912    0.28656    1.000
    Si555    Si       0.06411    0.70594    0.35562    1.000
    N556     N        0.06429    0.67917    0.25595    1.000
    N557     N        0.05595    0.66414    0.36449    1.000
    Si558    Si       0.09692    0.62307    0.43826    1.000
    N559     N        0.05888    0.61108    0.41573    1.000
    N560     N        0.06984    0.54724    0.40225    1.000
    N561     N        0.07035    0.50968    0.45438    1.000
    N562     N        0.09674    0.63608    0.48015    1.000
    Si563    Si       0.09090    0.69662    0.42777    1.000
    N564     N        0.05106    0.68045    0.43390    1.000
    N565     N        0.10338    0.72190    0.45985    1.000
    N566     N        0.08399    0.72037    0.39253    1.000
    N567     N        0.08236    0.54701    0.59992    1.000
    N568     N        0.09164    0.61652    0.57912    1.000
    Si569    Si       0.06501    0.58823    0.59794    1.000
    Si570    Si       0.07031    0.53078    0.54859    1.000
    Si571    Si       0.05415    0.51337    0.61111    1.000
    Si572    Si       0.07083    0.65415    0.57174    1.000
    N573     N        0.07899    0.74613    0.60054    1.000
    N574     N        0.06617    0.75064    0.52470    1.000
    N575     N        0.09749    0.68914    0.58367    1.000
    Si576    Si       0.06890    0.70517    0.61646    1.000
    Si577    Si       0.09364    0.72271    0.50168    1.000
    N578     N        0.06043    0.69324    0.50279    1.000
    N579     N        0.04349    0.64351    0.53925    1.000
    Si580    Si       0.05892    0.64942    0.49831    1.000
    N581     N        0.05511    0.60369    0.63689    1.000
    N582     N        0.08430    0.57152    0.68431    1.000
    Si583    Si       0.09428    0.60958    0.70223    1.000
    N584     N        0.06208    0.63918    0.69237    1.000
    Si585    Si       0.09621    0.73480    0.70710    1.000
    N586     N        0.09967    0.74654    0.66521    1.000
    N587     N        0.09347    0.67819    0.64674    1.000
    N588     N        0.05482    0.72363    0.72204    1.000
    Si589    Si       0.05615    0.64792    0.64946    1.000
    N590     N        0.06419    0.59530    0.81245    1.000
    Si591    Si       0.05761    0.59553    0.76926    1.000
    N592     N        0.09399    0.60933    0.74583    1.000
    N593     N        0.07243    0.51584    0.86907    1.000
    Si594    Si       0.10494    0.59937    0.83082    1.000
    N595     N        0.04655    0.55472    0.75747    1.000
    N596     N        0.05631    0.69361    0.82713    1.000
    Si597    Si       0.10029    0.69968    0.81477    1.000
    Si598    Si       0.06803    0.70853    0.86787    1.000
    N599     N        0.10736    0.72005    0.85311    1.000
    N600     N        0.10503    0.63682    0.85343    1.000
    N601     N        0.10283    0.66925    0.78399    1.000
    N602     N        0.05960    0.58872    0.96342    1.000
    Si603    Si       0.07982    0.55231    0.95109    1.000
    Si604    Si       0.08420    0.62459    0.95928    1.000
    N605     N        0.09724    0.61811    0.91932    1.000
    N606     N        0.09118    0.54016    0.99261    1.000
    Si607    Si       0.07885    0.63985    0.88607    1.000
    N608     N        0.10115    0.74157    0.92346    1.000
    N609     N        0.06905    0.68009    0.89836    1.000
    N610     N        0.07027    0.66503    0.96894    1.000
    Si611    Si       0.05862    0.75322    0.92278    1.000
    N612     N        0.08811    0.73596    0.99337    1.000
    Si613    Si       0.08023    0.79910    0.07761    1.000
    Si614    Si       0.07772    0.84737    0.03557    1.000
    N615     N        0.07657    0.80733    0.12132    1.000
    N616     N        0.08512    0.88873    0.05174    1.000
    N617     N        0.11136    0.82405    0.05704    1.000
    Si618    Si       0.05555    0.91704    0.03551    1.000
    N619     N        0.07480    0.95038    0.11079    1.000
    N620     N        0.09514    0.00253    0.05823    1.000
    N621     N        0.07045    0.94303    0.00330    1.000
    Si622    Si       0.10317    0.96702    0.08272    1.000
    N623     N        0.10726    0.89133    0.11905    1.000
    Si624    Si       0.06751    0.84863    0.21684    1.000
    N625     N        0.08982    0.84621    0.17773    1.000
    Si626    Si       0.08581    0.76987    0.14120    1.000
    N627     N        0.07529    0.77277    0.24166    1.000
    Si628    Si       0.05910    0.83465    0.15069    1.000
    N629     N        0.10617    0.95217    0.22495    1.000
    N630     N        0.07540    0.89147    0.22590    1.000
    Si631    Si       0.06920    0.90778    0.12906    1.000
    Si632    Si       0.06073    0.96888    0.14832    1.000
    N633     N        0.06241    0.92835    0.16645    1.000
    N634     N        0.09322    0.98669    0.17045    1.000
    Si635    Si       0.09371    0.92046    0.19757    1.000
    Si636    Si       0.07603    0.80257    0.27269    1.000
    N637     N        0.08114    0.84106    0.34803    1.000
    N638     N        0.06967    0.84263    0.26036    1.000
    Si639    Si       0.06379    0.88692    0.26567    1.000
    Si640    Si       0.08312    0.91797    0.33514    1.000
    N641     N        0.07830    0.91818    0.29015    1.000
    N642     N        0.07941    0.96171    0.34273    1.000
    Si643    Si       0.06146    0.96626    0.30287    1.000
    N644     N        0.10533    0.97320    0.28931    1.000
    N645     N        0.06581    0.81267    0.46176    1.000
    Si646    Si       0.09153    0.76405    0.39193    1.000
    Si647    Si       0.05909    0.88030    0.42092    1.000
    N648     N        0.07344    0.87992    0.46390    1.000
    N649     N        0.10088    0.88326    0.40390    1.000
    N650     N        0.05086    0.77531    0.40240    1.000
    Si651    Si       0.10697    0.79718    0.45813    1.000
    N652     N        0.09081    0.94685    0.45766    1.000
    N653     N        0.07800    0.00955    0.48742    1.000
    Si654    Si       0.09902    0.91123    0.47950    1.000
    Si655    Si       0.10937    0.98510    0.46405    1.000
    Si656    Si       0.08871    0.78720    0.53542    1.000
    N657     N        0.05797    0.80123    0.56532    1.000
    N658     N        0.09712    0.83438    0.52952    1.000
    N659     N        0.07080    0.88547    0.55898    1.000
    Si660    Si       0.05836    0.84332    0.55132    1.000
    Si661    Si       0.07057    0.99918    0.52932    1.000
    Si662    Si       0.05123    0.89545    0.59536    1.000
    N663     N        0.08298    0.89715    0.62606    1.000
    N664     N        0.08037    0.81214    0.65339    1.000
    Si665    Si       0.06450    0.77039    0.65364    1.000
    Si666    Si       0.08254    0.86487    0.74539    1.000
    Si667    Si       0.09054    0.98908    0.67883    1.000
    N668     N        0.07308    0.96304    0.64864    1.000
    Si669    Si       0.07727    0.92248    0.66005    1.000
    N670     N        0.08072    0.96441    0.71409    1.000
    N671     N        0.07012    0.83845    0.77749    1.000
    N672     N        0.08501    0.82154    0.85198    1.000
    Si673    Si       0.09570    0.83108    0.81169    1.000
    Si674    Si       0.09552    0.76712    0.77396    1.000
    N675     N        0.05228    0.76973    0.76996    1.000
    N676     N        0.07985    0.92176    0.82506    1.000
    Si677    Si       0.09099    0.95657    0.84989    1.000
    N678     N        0.06495    0.97490    0.77708    1.000
    N679     N        0.09798    0.90608    0.75704    1.000
    Si680    Si       0.09918    0.99741    0.78896    1.000
    N681     N        0.05741    0.97738    0.86699    1.000
    Si682    Si       0.08837    0.81645    0.95676    1.000
    N683     N        0.10252    0.83710    0.91830    1.000
    N684     N        0.07449    0.83793    0.99216    1.000
    N685     N        0.05529    0.79391    0.93550    1.000
    Si686    Si       0.09306    0.87935    0.91659    1.000
    N687     N        0.06087    0.88369    0.88683    1.000
    Si688    Si       0.09517    0.92315    0.97216    1.000
    N689     N        0.07054    0.89141    0.95122    1.000
    Si690    Si       0.06674    0.97900    0.97414    1.000
    N691     N        0.09014    0.95522    0.94388    1.000
    N692     N        0.14959    0.03546    0.03069    1.000
    Si693    Si       0.12199    0.09749    0.09287    1.000
    N694     N        0.15497    0.11293    0.02415    1.000
    N695     N        0.16196    0.08014    0.08449    1.000
    Si696    Si       0.11303    0.11337    0.02344    1.000
    Si697    Si       0.10687    0.02803    0.02539    1.000
    Si698    Si       0.14723    0.19087    0.09211    1.000
    Si699    Si       0.12562    0.19700    0.02477    1.000
    N700     N        0.13415    0.23713    0.01236    1.000
    N701     N        0.15402    0.17581    0.05214    1.000
    N702     N        0.15549    0.23281    0.09721    1.000
    N703     N        0.10854    0.18103    0.10997    1.000
    N704     N        0.12673    0.11451    0.13306    1.000
    Si705    Si       0.13499    0.08241    0.16121    1.000
    N706     N        0.11961    0.04365    0.14591    1.000
    N707     N        0.11057    0.08816    0.19717    1.000
    N708     N        0.16749    0.13596    0.18053    1.000
    N709     N        0.12453    0.15382    0.23092    1.000
    N710     N        0.12514    0.18965    0.16806    1.000
    Si711    Si       0.14267    0.15300    0.14842    1.000
    N712     N        0.10664    0.21823    0.24076    1.000
    Si713    Si       0.16631    0.15100    0.22093    1.000
    N714     N        0.13631    0.08713    0.34321    1.000
    N715     N        0.12782    0.03085    0.30573    1.000
    Si716    Si       0.14792    0.10396    0.30365    1.000
    N717     N        0.11318    0.09856    0.27258    1.000
    N718     N        0.11009    0.02136    0.36651    1.000
    Si719    Si       0.14744    0.21504    0.25624    1.000
    N720     N        0.14755    0.14652    0.29823    1.000
    N721     N        0.14011    0.21995    0.29931    1.000
    Si722    Si       0.12847    0.18039    0.31573    1.000
    N723     N        0.12269    0.16909    0.35662    1.000
    N724     N        0.14845    0.24979    0.35730    1.000
    Si725    Si       0.11185    0.14269    0.26920    1.000
    Si726    Si       0.13495    0.26103    0.31752    1.000
    Si727    Si       0.14469    0.09801    0.38298    1.000
    N728     N        0.14713    0.06440    0.41071    1.000
    Si729    Si       0.11712    0.03230    0.40875    1.000
    N730     N        0.13972    0.19316    0.41595    1.000
    Si731    Si       0.15792    0.17242    0.38148    1.000
    Si732    Si       0.10970    0.22125    0.49355    1.000
    N733     N        0.14966    0.22675    0.47470    1.000
    N734     N        0.11890    0.04883    0.58793    1.000
    Si735    Si       0.16089    0.06227    0.51058    1.000
    Si736    Si       0.13979    0.01388    0.56535    1.000
    Si737    Si       0.14772    0.06311    0.61700    1.000
    N738     N        0.14528    0.10573    0.61867    1.000
    N739     N        0.11897    0.07191    0.50354    1.000
    N740     N        0.12932    0.13816    0.50492    1.000
    N741     N        0.11812    0.20617    0.53311    1.000
    Si742    Si       0.13561    0.23921    0.55944    1.000
    Si743    Si       0.11768    0.16294    0.54222    1.000
    N744     N        0.15447    0.15296    0.56572    1.000
    N745     N        0.13781    0.19672    0.61924    1.000
    N746     N        0.14430    0.04661    0.65654    1.000
    Si747    Si       0.12602    0.12445    0.65110    1.000
    N748     N        0.11408    0.04743    0.72586    1.000
    Si749    Si       0.11217    0.05755    0.68295    1.000
    Si750    Si       0.16434    0.01436    0.67800    1.000
    Si751    Si       0.14611    0.22284    0.65423    1.000
    N752     N        0.11657    0.21027    0.68451    1.000
    N753     N        0.16174    0.13985    0.67527    1.000
    Si754    Si       0.12697    0.22934    0.72360    1.000
    N755     N        0.13394    0.25917    0.63468    1.000
    Si756    Si       0.14967    0.10485    0.78684    1.000
    N757     N        0.13821    0.04670    0.84475    1.000
    Si758    Si       0.14917    0.03397    0.74922    1.000
    N759     N        0.15699    0.13055    0.75296    1.000
    N760     N        0.11297    0.10005    0.81043    1.000
    N761     N        0.14800    0.19518    0.82480    1.000
    Si762    Si       0.11075    0.19454    0.84661    1.000
    N763     N        0.13732    0.25248    0.79133    1.000
    N764     N        0.16102    0.20937    0.74916    1.000
    Si765    Si       0.16571    0.21855    0.79352    1.000
    Si766    Si       0.14201    0.02242    0.92161    1.000
    Si767    Si       0.13122    0.09613    0.91823    1.000
    N768     N        0.12316    0.05733    0.93645    1.000
    N769     N        0.14084    0.12943    0.94705    1.000
    N770     N        0.16681    0.09247    0.89230    1.000
    N771     N        0.12595    0.21092    0.88353    1.000
    N772     N        0.12989    0.18181    0.98481    1.000
    Si773    Si       0.14115    0.22199    0.96771    1.000
    N774     N        0.10941    0.24176    0.94507    1.000
    Si775    Si       0.16723    0.20051    0.89325    1.000
    N776     N        0.14067    0.29901    0.07546    1.000
    Si777    Si       0.12488    0.34185    0.00695    1.000
    N778     N        0.15792    0.36744    0.00589    1.000
    Si779    Si       0.14526    0.27327    0.11125    1.000
    Si780    Si       0.16024    0.27022    0.00451    1.000
    N781     N        0.15438    0.40148    0.06716    1.000
    N782     N        0.12094    0.48389    0.03360    1.000
    Si783    Si       0.14660    0.48221    0.06753    1.000
    N784     N        0.12025    0.46046    0.09620    1.000
    Si785    Si       0.11130    0.50355    0.11947    1.000
    Si786    Si       0.11199    0.39177    0.06105    1.000
    N787     N        0.12860    0.36595    0.17889    1.000
    Si788    Si       0.13916    0.35104    0.13990    1.000
    N789     N        0.14676    0.30648    0.14387    1.000
    N790     N        0.12420    0.26870    0.19919    1.000
    Si791    Si       0.11134    0.29061    0.16271    1.000
    Si792    Si       0.15291    0.39005    0.20540    1.000
    N793     N        0.15528    0.43184    0.19130    1.000
    N794     N        0.12789    0.48779    0.21618    1.000
    Si795    Si       0.16479    0.46569    0.21633    1.000
    Si796    Si       0.14069    0.44930    0.15186    1.000
    N797     N        0.13949    0.49361    0.15295    1.000
    N798     N        0.13064    0.35449    0.35405    1.000
    N799     N        0.11871    0.32057    0.26113    1.000
    Si800    Si       0.16267    0.31580    0.27282    1.000
    Si801    Si       0.10588    0.36295    0.26280    1.000
    Si802    Si       0.10971    0.38835    0.33329    1.000
    Si803    Si       0.13785    0.42327    0.27159    1.000
    N804     N        0.13856    0.41728    0.31638    1.000
    N805     N        0.13099    0.50045    0.34850    1.000
    N806     N        0.10897    0.50480    0.27961    1.000
    N807     N        0.14198    0.38634    0.24827    1.000
    Si808    Si       0.12100    0.33035    0.39099    1.000
    Si809    Si       0.12644    0.26538    0.39232    1.000
    Si810    Si       0.14019    0.32652    0.45518    1.000
    N811     N        0.14631    0.30161    0.41568    1.000
    N812     N        0.12090    0.32067    0.49286    1.000
    N813     N        0.10989    0.34871    0.42956    1.000
    N814     N        0.15087    0.41923    0.44997    1.000
    Si815    Si       0.12130    0.48350    0.39036    1.000
    N816     N        0.12063    0.47217    0.43493    1.000
    N817     N        0.14745    0.44853    0.38387    1.000
    Si818    Si       0.10874    0.43370    0.45357    1.000
    Si819    Si       0.11580    0.51101    0.45061    1.000
    N820     N        0.12591    0.33416    0.56285    1.000
    Si821    Si       0.14641    0.34842    0.59861    1.000
    Si822    Si       0.14535    0.31492    0.52938    1.000
    N823     N        0.14840    0.27067    0.53174    1.000
    N824     N        0.13986    0.47525    0.51576    1.000
    Si825    Si       0.11834    0.46800    0.60537    1.000
    N826     N        0.14332    0.50140    0.59415    1.000
    N827     N        0.14249    0.43561    0.62741    1.000
    N828     N        0.12628    0.33105    0.63381    1.000
    Si829    Si       0.14684    0.34663    0.67187    1.000
    Si830    Si       0.15280    0.29347    0.71432    1.000
    N831     N        0.13844    0.33820    0.71699    1.000
    Si832    Si       0.15434    0.29711    0.63408    1.000
    N833     N        0.11209    0.27364    0.72490    1.000
    N834     N        0.11134    0.37541    0.67412    1.000
    N835     N        0.10805    0.43793    0.68647    1.000
    N836     N        0.14774    0.47094    0.74054    1.000
    Si837    Si       0.14000    0.41193    0.66482    1.000
    Si838    Si       0.13260    0.43372    0.72499    1.000
    Si839    Si       0.12199    0.50544    0.73979    1.000
    N840     N        0.12584    0.39519    0.74587    1.000
    N841     N        0.13924    0.32967    0.78781    1.000
    N842     N        0.14034    0.33478    0.86356    1.000
    Si843    Si       0.12550    0.34879    0.82542    1.000
    Si844    Si       0.15152    0.35631    0.75614    1.000
    Si845    Si       0.15904    0.29153    0.78854    1.000
    N846     N        0.13718    0.38960    0.81493    1.000
    Si847    Si       0.15888    0.42809    0.81453    1.000
    N848     N        0.12035    0.44698    0.80214    1.000
    Si849    Si       0.10717    0.40738    0.78607    1.000
    Si850    Si       0.14111    0.33413    0.90707    1.000
    N851     N        0.16129    0.37398    0.91560    1.000
    N852     N        0.13222    0.30118    0.99444    1.000
    Si853    Si       0.10714    0.49872    0.99508    1.000
    N854     N        0.11983    0.42973    0.88524    1.000
    N855     N        0.14137    0.50078    0.88829    1.000
    N856     N        0.12368    0.42118    0.95991    1.000
    Si857    Si       0.15293    0.45862    0.88365    1.000
    N858     N        0.13401    0.49194    0.96310    1.000
    Si859    Si       0.15403    0.45340    0.96482    1.000
    Si860    Si       0.12961    0.40304    0.92049    1.000
    Si861    Si       0.14597    0.55970    0.07530    1.000
    N862     N        0.13772    0.52081    0.08812    1.000
    N863     N        0.14160    0.58488    0.11207    1.000
    Si864    Si       0.11853    0.57220    0.00285    1.000
    N865     N        0.11689    0.57578    0.04687    1.000
    Si866    Si       0.16035    0.62432    0.10810    1.000
    N867     N        0.15819    0.63642    0.06636    1.000
    N868     N        0.12648    0.68137    0.02006    1.000
    N869     N        0.15035    0.74223    0.04924    1.000
    Si870    Si       0.15559    0.71338    0.01624    1.000
    Si871    Si       0.12378    0.66207    0.05836    1.000
    N872     N        0.12045    0.69335    0.08887    1.000
    Si873    Si       0.11519    0.73633    0.07641    1.000
    N874     N        0.11811    0.75526    0.11468    1.000
    Si875    Si       0.12068    0.52228    0.18773    1.000
    N876     N        0.15857    0.54465    0.18241    1.000
    Si877    Si       0.13568    0.62992    0.17690    1.000
    N878     N        0.15550    0.56526    0.24850    1.000
    Si879    Si       0.12130    0.68698    0.13242    1.000
    N880     N        0.13819    0.64780    0.13633    1.000
    Si881    Si       0.14907    0.69774    0.19869    1.000
    N882     N        0.14568    0.71138    0.15616    1.000
    N883     N        0.13728    0.72481    0.22767    1.000
    Si884    Si       0.15671    0.74774    0.13741    1.000
    N885     N        0.12098    0.66540    0.19731    1.000
    Si886    Si       0.14301    0.60301    0.34374    1.000
    N887     N        0.14667    0.61315    0.30051    1.000
    N888     N        0.11831    0.57097    0.35676    1.000
    Si889    Si       0.11765    0.54346    0.26005    1.000
    Si890    Si       0.10960    0.61033    0.27904    1.000
    N891     N        0.11910    0.63706    0.35629    1.000
    Si892    Si       0.12604    0.72955    0.33737    1.000
    N893     N        0.13693    0.67721    0.27467    1.000
    N894     N        0.14739    0.73976    0.30280    1.000
    Si895    Si       0.15434    0.71779    0.26533    1.000
    N896     N        0.14932    0.70667    0.36655    1.000
    N897     N        0.13466    0.52763    0.41134    1.000
    N898     N        0.13677    0.53595    0.48080    1.000
    Si899    Si       0.15219    0.57343    0.45796    1.000
    N900     N        0.12232    0.58994    0.42864    1.000
    Si901    Si       0.11126    0.56115    0.39886    1.000
    N902     N        0.11400    0.66200    0.41840    1.000
    Si903    Si       0.13916    0.66579    0.38087    1.000
    Si904    Si       0.13874    0.63711    0.49242    1.000
    N905     N        0.16031    0.67604    0.48748    1.000
    Si906    Si       0.13464    0.61888    0.57252    1.000
    Si907    Si       0.12467    0.54285    0.59094    1.000
    N908     N        0.14894    0.57957    0.58625    1.000
    Si909    Si       0.14406    0.51862    0.51913    1.000
    N910     N        0.11521    0.53849    0.54791    1.000
    N911     N        0.14290    0.64202    0.53759    1.000
    N912     N        0.14998    0.64698    0.60220    1.000
    N913     N        0.12668    0.71879    0.53008    1.000
    N914     N        0.14485    0.72509    0.60426    1.000
    Si915    Si       0.15351    0.68318    0.53214    1.000
    Si916    Si       0.12912    0.68187    0.61817    1.000
    Si917    Si       0.11360    0.73267    0.57182    1.000
    Si918    Si       0.14788    0.75936    0.51837    1.000
    N919     N        0.15293    0.56995    0.70063    1.000
    N920     N        0.13716    0.54797    0.63976    1.000
    Si921    Si       0.12072    0.54637    0.67867    1.000
    N922     N        0.12654    0.62934    0.68433    1.000
    Si923    Si       0.16532    0.60967    0.68644    1.000
    N924     N        0.11338    0.50864    0.69680    1.000
    N925     N        0.12212    0.70053    0.71257    1.000
    Si926    Si       0.12167    0.67185    0.67977    1.000
    N927     N        0.15615    0.68236    0.65366    1.000
    Si928    Si       0.13310    0.75048    0.63969    1.000
    N929     N        0.13394    0.60404    0.80038    1.000
    N930     N        0.15032    0.53469    0.75958    1.000
    Si931    Si       0.11470    0.52686    0.86262    1.000
    N932     N        0.11796    0.57298    0.86418    1.000
    N933     N        0.12712    0.51264    0.82291    1.000
    Si934    Si       0.16292    0.52495    0.80147    1.000
    Si935    Si       0.12029    0.63108    0.77005    1.000
    N936     N        0.11967    0.72815    0.78494    1.000
    Si937    Si       0.16236    0.73203    0.79418    1.000
    Si938    Si       0.13320    0.69157    0.75500    1.000
    N939     N        0.15478    0.65137    0.75217    1.000
    N940     N        0.11588    0.55039    0.92823    1.000
    N941     N        0.11867    0.61029    0.98127    1.000
    Si942    Si       0.14618    0.51516    0.92886    1.000
    Si943    Si       0.12535    0.58819    0.90557    1.000
    Si944    Si       0.15895    0.60425    0.96886    1.000
    N945     N        0.15603    0.56324    0.98672    1.000
    N946     N        0.16247    0.60644    0.92461    1.000
    Si947    Si       0.12865    0.73721    0.88747    1.000
    N948     N        0.15948    0.70976    0.89729    1.000
    Si949    Si       0.11591    0.74991    0.96317    1.000
    N950     N        0.15003    0.72171    0.97142    1.000
    N951     N        0.15519    0.87266    0.07261    1.000
    Si952    Si       0.15223    0.83066    0.06356    1.000
    Si953    Si       0.12049    0.89653    0.07612    1.000
    N954     N        0.13759    0.98099    0.10912    1.000
    N955     N        0.13040    0.93671    0.06302    1.000
    N956     N        0.15242    0.96822    0.00579    1.000
    Si957    Si       0.15064    0.92740    0.02181    1.000
    Si958    Si       0.12102    0.87021    0.15644    1.000
    N959     N        0.14222    0.82217    0.22395    1.000
    Si960    Si       0.13928    0.80717    0.18451    1.000
    N961     N        0.15317    0.84080    0.15726    1.000
    N962     N        0.10679    0.77811    0.17979    1.000
    Si963    Si       0.11942    0.98729    0.20469    1.000
    Si964    Si       0.12693    0.00176    0.14690    1.000
    N965     N        0.15501    0.99130    0.17724    1.000
    N966     N        0.12929    0.90272    0.18118    1.000
    N967     N        0.13454    0.00906    0.23905    1.000
    N968     N        0.14042    0.82919    0.35590    1.000
    Si969    Si       0.14991    0.80998    0.26674    1.000
    N970     N        0.11471    0.80566    0.29132    1.000
    Si971    Si       0.11569    0.86557    0.36679    1.000
    N972     N        0.10722    0.76838    0.35230    1.000
    Si973    Si       0.10833    0.80937    0.33455    1.000
    N974     N        0.12169    0.90372    0.34541    1.000
    N975     N        0.15485    0.96937    0.33987    1.000
    N976     N        0.14478    0.91303    0.26812    1.000
    Si977    Si       0.15647    0.92756    0.35627    1.000
    Si978    Si       0.11505    0.98930    0.33527    1.000
    Si979    Si       0.11130    0.93798    0.26568    1.000
    N980     N        0.13406    0.82890    0.46308    1.000
    N981     N        0.12093    0.77836    0.42018    1.000
    Si982    Si       0.16523    0.76838    0.41680    1.000
    N983     N        0.16586    0.86556    0.40927    1.000
    N984     N        0.11551    0.78027    0.49601    1.000
    N985     N        0.15359    0.93406    0.40002    1.000
    N986     N        0.13776    0.89919    0.46473    1.000
    N987     N        0.14422    0.97771    0.49122    1.000
    N988     N        0.13135    0.99475    0.42798    1.000
    Si989    Si       0.13685    0.89706    0.42041    1.000
    Si990    Si       0.16652    0.97228    0.41576    1.000
    N991     N        0.12533    0.77502    0.55751    1.000
    Si992    Si       0.13776    0.82316    0.50958    1.000
    Si993    Si       0.15809    0.78641    0.58389    1.000
    N994     N        0.15075    0.86363    0.52270    1.000
    N995     N        0.13517    0.88110    0.57933    1.000
    Si996    Si       0.11073    0.87896    0.54141    1.000
    N997     N        0.13996    0.79021    0.62159    1.000
    N998     N        0.11066    0.92162    0.52033    1.000
    Si999    Si       0.13385    0.95584    0.52782    1.000
    Si1000   Si       0.12336    0.89145    0.61882    1.000
    N1001    N        0.16038    0.99187    0.59695    1.000
    N1002    N        0.11002    0.98779    0.54820    1.000
    N1003    N        0.10626    0.84818    0.71364    1.000
    Si1004   Si       0.13372    0.87265    0.69017    1.000
    Si1005   Si       0.12572    0.81009    0.71937    1.000
    N1006    N        0.13481    0.86083    0.64753    1.000
    N1007    N        0.14766    0.81062    0.68298    1.000
    Si1008   Si       0.12288    0.81891    0.64803    1.000
    N1009    N        0.15953    0.81705    0.74712    1.000
    N1010    N        0.10706    0.77111    0.73080    1.000
    N1011    N        0.15313    0.93770    0.73468    1.000
    N1012    N        0.14185    0.93041    0.62432    1.000
    Si1013   Si       0.14786    0.94065    0.66511    1.000
    N1014    N        0.13456    0.98107    0.67569    1.000
    Si1015   Si       0.11084    0.93408    0.72451    1.000
    N1016    N        0.11446    0.91415    0.68497    1.000
    N1017    N        0.12062    0.86763    0.81414    1.000
    N1018    N        0.11762    0.79622    0.79764    1.000
    Si1019   Si       0.15816    0.86062    0.83464    1.000
    Si1020   Si       0.15883    0.80527    0.78742    1.000
    N1021    N        0.15399    0.83558    0.86997    1.000
    N1022    N        0.14468    0.93394    0.80648    1.000
    N1023    N        0.13993    0.99541    0.77135    1.000
    Si1024   Si       0.16174    0.93947    0.84806    1.000
    Si1025   Si       0.14053    0.00331    0.85549    1.000
    Si1026   Si       0.16145    0.95777    0.77480    1.000
    N1027    N        0.10835    0.98999    0.82938    1.000
    Si1028   Si       0.10931    0.90520    0.79879    1.000
    Si1029   Si       0.11662    0.81559    0.88261    1.000
    N1030    N        0.14031    0.77764    0.88502    1.000
    N1031    N        0.12308    0.79247    0.96841    1.000
    Si1032   Si       0.15711    0.81381    0.98547    1.000
    Si1033   Si       0.15275    0.89042    0.96336    1.000
    N1034    N        0.12427    0.94301    0.87264    1.000
    Si1035   Si       0.12006    0.96013    0.91409    1.000
    N1036    N        0.11437    0.00264    0.89260    1.000
    N1037    N        0.12737    0.90320    0.99292    1.000
    N1038    N        0.14926    0.98354    0.94190    1.000
    N1039    N        0.13445    0.89809    0.92422    1.000
    Si1040   Si       0.16738    0.90259    0.89653    1.000
    N1041    N        0.20691    0.06247    0.03275    1.000
    Si1042   Si       0.19417    0.07846    0.11372    1.000
    N1043    N        0.22111    0.13074    0.04762    1.000
    N1044    N        0.22228    0.04781    0.10922    1.000
    Si1045   Si       0.16744    0.07265    0.04341    1.000
    N1046    N        0.21545    0.11600    0.12128    1.000
    Si1047   Si       0.18275    0.14728    0.03246    1.000
    Si1048   Si       0.19725    0.23714    0.10651    1.000
    N1049    N        0.17405    0.17018    0.12071    1.000
    Si1050   Si       0.20344    0.05510    0.18383    1.000
    Si1051   Si       0.20638    0.11948    0.16499    1.000
    N1052    N        0.17777    0.07509    0.15369    1.000
    N1053    N        0.18752    0.05212    0.22402    1.000
    N1054    N        0.19078    0.12321    0.24360    1.000
    N1055    N        0.21655    0.01559    0.16929    1.000
    Si1056   Si       0.17876    0.01245    0.24167    1.000
    Si1057   Si       0.21399    0.17562    0.13530    1.000
    N1058    N        0.17465    0.24538    0.24105    1.000
    N1059    N        0.22645    0.15888    0.17314    1.000
    Si1060   Si       0.20788    0.22005    0.24197    1.000
    N1061    N        0.19752    0.03148    0.34341    1.000
    N1062    N        0.18110    0.07832    0.29217    1.000
    Si1063   Si       0.20144    0.08160    0.25333    1.000
    Si1064   Si       0.17193    0.03885    0.30911    1.000
    N1065    N        0.19466    0.01117    0.28143    1.000
    N1066    N        0.22225    0.14725    0.30860    1.000
    Si1067   Si       0.20760    0.15515    0.26919    1.000
    N1068    N        0.19497    0.19077    0.36124    1.000
    Si1069   Si       0.18757    0.23288    0.37067    1.000
    N1070    N        0.21739    0.25783    0.35091    1.000
    N1071    N        0.18241    0.18555    0.24688    1.000
    Si1072   Si       0.22626    0.01963    0.40350    1.000
    N1073    N        0.17584    0.04371    0.47466    1.000
    N1074    N        0.18031    0.11343    0.45548    1.000
    N1075    N        0.21171    0.06021    0.41599    1.000
    Si1076   Si       0.17804    0.06937    0.44191    1.000
    N1077    N        0.17198    0.13225    0.39194    1.000
    Si1078   Si       0.17175    0.25880    0.49689    1.000
    N1079    N        0.18066    0.24320    0.41352    1.000
    Si1080   Si       0.19813    0.13992    0.42634    1.000
    N1081    N        0.20393    0.18350    0.43323    1.000
    Si1082   Si       0.17073    0.20988    0.43917    1.000
    N1083    N        0.18684    0.05185    0.60254    1.000
    N1084    N        0.18435    0.09732    0.52022    1.000
    Si1085   Si       0.17491    0.12203    0.59138    1.000
    N1086    N        0.21443    0.10626    0.57918    1.000
    Si1087   Si       0.21288    0.02133    0.53670    1.000
    Si1088   Si       0.22283    0.09759    0.53759    1.000
    N1089    N        0.16893    0.02854    0.53665    1.000
    Si1090   Si       0.16998    0.13040    0.49491    1.000
    Si1091   Si       0.17007    0.18424    0.59105    1.000
    N1092    N        0.20835    0.24386    0.51107    1.000
    N1093    N        0.17599    0.22307    0.57203    1.000
    Si1094   Si       0.21421    0.23559    0.55616    1.000
    N1095    N        0.19475    0.16350    0.50484    1.000
    N1096    N        0.19587    0.15573    0.61474    1.000
    N1097    N        0.17622    0.02179    0.71773    1.000
    Si1098   Si       0.21032    0.04753    0.72634    1.000
    N1099    N        0.19906    0.08794    0.71094    1.000
    Si1100   Si       0.17457    0.12346    0.71376    1.000
    Si1101   Si       0.19242    0.24620    0.74525    1.000
    N1102    N        0.16766    0.25105    0.70501    1.000
    N1103    N        0.18751    0.21027    0.65958    1.000
    N1104    N        0.20448    0.15618    0.72177    1.000
    Si1105   Si       0.19124    0.16709    0.65718    1.000
    Si1106   Si       0.20556    0.23979    0.68465    1.000
    N1107    N        0.20298    0.05793    0.83642    1.000
    N1108    N        0.17733    0.12231    0.81828    1.000
    Si1109   Si       0.20662    0.05928    0.79191    1.000
    Si1110   Si       0.21372    0.10139    0.83338    1.000
    Si1111   Si       0.17471    0.05797    0.86747    1.000
    N1112    N        0.16749    0.06469    0.77486    1.000
    Si1113   Si       0.17889    0.16840    0.75301    1.000
    Si1114   Si       0.17938    0.16501    0.83051    1.000
    N1115    N        0.19769    0.17912    0.79061    1.000
    N1116    N        0.20667    0.23937    0.79077    1.000
    N1117    N        0.17620    0.02257    0.89323    1.000
    Si1118   Si       0.19262    0.12876    0.89496    1.000
    Si1119   Si       0.21778    0.04753    0.99412    1.000
    N1120    N        0.17575    0.16256    0.87349    1.000
    Si1121   Si       0.20493    0.23521    0.93801    1.000
    N1122    N        0.16873    0.19840    0.93733    1.000
    N1123    N        0.20380    0.13762    0.93573    1.000
    N1124    N        0.19433    0.16707    0.99489    1.000
    N1125    N        0.20012    0.22954    0.89419    1.000
    Si1126   Si       0.17205    0.15867    0.95840    1.000
    N1127    N        0.17570    0.25683    0.96611    1.000
    N1128    N        0.19173    0.28125    0.10601    1.000
    N1129    N        0.20226    0.33554    0.05255    1.000
    Si1130   Si       0.18381    0.29926    0.06634    1.000
    Si1131   Si       0.20247    0.35198    0.00990    1.000
    N1132    N        0.19236    0.26911    0.03330    1.000
    N1133    N        0.21291    0.39227    0.02375    1.000
    N1134    N        0.18915    0.47174    0.07131    1.000
    Si1135   Si       0.20496    0.47049    0.11145    1.000
    Si1136   Si       0.18055    0.40558    0.10404    1.000
    Si1137   Si       0.22028    0.48367    0.04348    1.000
    N1138    N        0.22287    0.39708    0.09340    1.000
    Si1139   Si       0.22501    0.42700    0.99908    1.000
    Si1140   Si       0.16458    0.40578    0.02497    1.000
    N1141    N        0.18979    0.36640    0.19741    1.000
    Si1142   Si       0.19086    0.30165    0.14539    1.000
    N1143    N        0.19693    0.27216    0.17847    1.000
    Si1144   Si       0.21547    0.33914    0.22122    1.000
    Si1145   Si       0.20898    0.37216    0.15908    1.000
    N1146    N        0.18381    0.31070    0.23384    1.000
    N1147    N        0.22390    0.33162    0.14516    1.000
    N1148    N        0.17367    0.37361    0.13122    1.000
    Si1149   Si       0.16833    0.27581    0.21141    1.000
    Si1150   Si       0.17768    0.51115    0.16093    1.000
    N1151    N        0.17867    0.44134    0.12906    1.000
    N1152    N        0.19318    0.48825    0.19490    1.000
    Si1153   Si       0.20047    0.29302    0.32799    1.000
    N1154    N        0.19659    0.32603    0.35629    1.000
    N1155    N        0.17923    0.34959    0.29793    1.000
    Si1156   Si       0.17263    0.35647    0.33986    1.000
    N1157    N        0.16422    0.28770    0.30576    1.000
    N1158    N        0.18574    0.39529    0.35331    1.000
    N1159    N        0.19069    0.46907    0.32962    1.000
    Si1160   Si       0.19564    0.48023    0.28577    1.000
    Si1161   Si       0.17217    0.50831    0.34305    1.000
    N1162    N        0.16975    0.45382    0.25964    1.000
    Si1163   Si       0.16597    0.43503    0.34578    1.000
    N1164    N        0.17397    0.35280    0.46438    1.000
    Si1165   Si       0.20063    0.32642    0.48725    1.000
    N1166    N        0.17879    0.29227    0.47124    1.000
    Si1167   Si       0.18395    0.28466    0.42771    1.000
    N1168    N        0.22392    0.39936    0.46832    1.000
    Si1169   Si       0.17890    0.39419    0.46974    1.000
    N1170    N        0.20854    0.43472    0.40552    1.000
    N1171    N        0.18700    0.48783    0.43609    1.000
    Si1172   Si       0.21516    0.48749    0.46896    1.000
    Si1173   Si       0.22111    0.40598    0.37475    1.000
    Si1174   Si       0.16941    0.44786    0.42174    1.000
    N1175    N        0.18663    0.33209    0.53159    1.000
    Si1176   Si       0.20621    0.31521    0.56838    1.000
    N1177    N        0.17549    0.31351    0.59863    1.000
    Si1178   Si       0.18796    0.37792    0.54261    1.000
    N1179    N        0.17092    0.38129    0.58289    1.000
    Si1180   Si       0.18431    0.49276    0.57652    1.000
    N1181    N        0.17699    0.45054    0.56800    1.000
    Si1182   Si       0.17459    0.42193    0.60088    1.000
    Si1183   Si       0.17154    0.44619    0.52418    1.000
    N1184    N        0.21772    0.49291    0.60459    1.000
    N1185    N        0.16972    0.40370    0.51206    1.000
    N1186    N        0.20929    0.45813    0.50243    1.000
    Si1187   Si       0.21617    0.31643    0.67796    1.000
    N1188    N        0.17210    0.30950    0.67433    1.000
    N1189    N        0.16918    0.37835    0.64961    1.000
    N1190    N        0.21142    0.42442    0.62433    1.000
    N1191    N        0.21816    0.46601    0.73315    1.000
    N1192    N        0.21732    0.47222    0.66948    1.000
    Si1193   Si       0.20910    0.43995    0.69835    1.000
    Si1194   Si       0.21133    0.38863    0.65133    1.000
    N1195    N        0.16935    0.42314    0.69869    1.000
    N1196    N        0.19395    0.36140    0.76458    1.000
    N1197    N        0.17913    0.28988    0.82709    1.000
    Si1198   Si       0.17933    0.31211    0.86377    1.000
    Si1199   Si       0.21450    0.32393    0.75257    1.000
    N1200    N        0.18139    0.29115    0.74877    1.000
    Si1201   Si       0.21873    0.27494    0.81333    1.000
    N1202    N        0.17802    0.44591    0.84914    1.000
    Si1203   Si       0.21215    0.39723    0.77955    1.000
    N1204    N        0.18448    0.43031    0.78187    1.000
    N1205    N        0.19747    0.49848    0.79107    1.000
    Si1206   Si       0.18458    0.46787    0.76077    1.000
    Si1207   Si       0.21738    0.42824    0.85332    1.000
    N1208    N        0.22624    0.39692    0.82319    1.000
    N1209    N        0.21167    0.34130    0.87335    1.000
    N1210    N        0.20302    0.32841    0.97119    1.000
    Si1211   Si       0.20430    0.37039    0.90916    1.000
    Si1212   Si       0.19165    0.29601    0.94680    1.000
    N1213    N        0.17308    0.30329    0.90832    1.000
    Si1214   Si       0.21519    0.44702    0.92180    1.000
    N1215    N        0.21907    0.41177    0.89401    1.000
    N1216    N        0.17043    0.44913    0.92478    1.000
    N1217    N        0.17823    0.43864    0.99706    1.000
    N1218    N        0.18489    0.56894    0.05649    1.000
    Si1219   Si       0.18572    0.61056    0.04169    1.000
    Si1220   Si       0.21734    0.54473    0.03933    1.000
    N1221    N        0.19531    0.51049    0.01808    1.000
    N1222    N        0.18245    0.62721    0.00089    1.000
    N1223    N        0.22769    0.62279    0.05556    1.000
    N1224    N        0.18753    0.73998    0.10844    1.000
    N1225    N        0.19474    0.69620    0.01461    1.000
    N1226    N        0.22312    0.69001    0.08060    1.000
    Si1227   Si       0.22524    0.71827    0.11420    1.000
    Si1228   Si       0.22359    0.71256    0.04252    1.000
    N1229    N        0.20127    0.62789    0.12171    1.000
    Si1230   Si       0.20994    0.61087    0.16263    1.000
    N1231    N        0.20630    0.51253    0.12700    1.000
    N1232    N        0.21520    0.57538    0.22623    1.000
    N1233    N        0.17358    0.60953    0.18527    1.000
    Si1234   Si       0.17543    0.57371    0.21042    1.000
    N1235    N        0.18928    0.68056    0.20393    1.000
    Si1236   Si       0.20866    0.68081    0.24208    1.000
    N1237    N        0.18616    0.60013    0.35179    1.000
    Si1238   Si       0.19032    0.55132    0.27103    1.000
    Si1239   Si       0.20641    0.56838    0.33155    1.000
    N1240    N        0.17802    0.53580    0.31139    1.000
    N1241    N        0.21718    0.58233    0.29054    1.000
    Si1242   Si       0.22587    0.60727    0.25635    1.000
    N1243    N        0.20281    0.51284    0.25643    1.000
    Si1244   Si       0.20484    0.63956    0.35661    1.000
    N1245    N        0.19822    0.64183    0.26002    1.000
    N1246    N        0.19491    0.66570    0.32171    1.000
    N1247    N        0.19743    0.70944    0.27133    1.000
    N1248    N        0.21162    0.74176    0.32429    1.000
    Si1249   Si       0.21650    0.70166    0.31033    1.000
    Si1250   Si       0.16918    0.65022    0.29128    1.000
    Si1251   Si       0.22226    0.76026    0.36433    1.000
    N1252    N        0.16732    0.60587    0.48210    1.000
    N1253    N        0.19593    0.52698    0.37363    1.000
    N1254    N        0.22226    0.52872    0.48120    1.000
    Si1255   Si       0.17742    0.52396    0.41412    1.000
    N1256    N        0.18739    0.56069    0.43418    1.000
    Si1257   Si       0.17947    0.70772    0.46553    1.000
    Si1258   Si       0.18441    0.70465    0.39168    1.000
    N1259    N        0.17067    0.72526    0.42761    1.000
    N1260    N        0.22286    0.69700    0.45916    1.000
    N1261    N        0.17778    0.74171    0.49256    1.000
    N1262    N        0.18252    0.66029    0.38845    1.000
    N1263    N        0.22278    0.72176    0.38748    1.000
    N1264    N        0.21068    0.55991    0.60668    1.000
    N1265    N        0.21049    0.57968    0.53335    1.000
    Si1266   Si       0.22043    0.53849    0.52519    1.000
    N1267    N        0.18631    0.51875    0.54007    1.000
    N1268    N        0.21078    0.62974    0.58264    1.000
    Si1269   Si       0.22267    0.58991    0.57618    1.000
    Si1270   Si       0.17106    0.57107    0.62221    1.000
    Si1271   Si       0.20781    0.60930    0.50130    1.000
    Si1272   Si       0.18790    0.72160    0.58712    1.000
    N1273    N        0.18795    0.69206    0.55573    1.000
    Si1274   Si       0.21999    0.66292    0.55574    1.000
    Si1275   Si       0.18944    0.63872    0.61938    1.000
    N1276    N        0.19143    0.76074    0.56746    1.000
    N1277    N        0.17935    0.60660    0.64527    1.000
    Si1278   Si       0.17791    0.55711    0.73444    1.000
    N1279    N        0.21426    0.53471    0.72585    1.000
    N1280    N        0.19789    0.63060    0.70718    1.000
    N1281    N        0.21528    0.71903    0.62296    1.000
    Si1282   Si       0.21218    0.71163    0.73783    1.000
    N1283    N        0.17064    0.74964    0.66236    1.000
    N1284    N        0.20852    0.70164    0.69506    1.000
    Si1285   Si       0.18736    0.71026    0.65854    1.000
    N1286    N        0.18447    0.55936    0.82149    1.000
    Si1287   Si       0.17640    0.59664    0.80036    1.000
    N1288    N        0.18876    0.58961    0.75931    1.000
    Si1289   Si       0.22119    0.55841    0.84474    1.000
    N1290    N        0.19889    0.63269    0.79881    1.000
    Si1291   Si       0.19595    0.63565    0.75393    1.000
    Si1292   Si       0.18378    0.69230    0.86518    1.000
    N1293    N        0.17342    0.71559    0.75696    1.000
    Si1294   Si       0.22170    0.64172    0.83570    1.000
    N1295    N        0.19321    0.64873    0.86922    1.000
    N1296    N        0.16949    0.70358    0.82643    1.000
    N1297    N        0.22560    0.70564    0.86584    1.000
    N1298    N        0.18506    0.52467    0.94295    1.000
    Si1299   Si       0.18927    0.53640    0.98361    1.000
    Si1300   Si       0.22094    0.52487    0.91885    1.000
    N1301    N        0.22078    0.55656    0.89011    1.000
    Si1302   Si       0.19164    0.63586    0.91283    1.000
    N1303    N        0.20928    0.73803    0.93009    1.000
    Si1304   Si       0.20046    0.66364    0.98506    1.000
    Si1305   Si       0.17496    0.71057    0.93809    1.000
    N1306    N        0.18363    0.66678    0.94515    1.000
    Si1307   Si       0.20739    0.79130    0.02116    1.000
    N1308    N        0.17283    0.81848    0.02762    1.000
    N1309    N        0.17210    0.80413    0.09278    1.000
    Si1310   Si       0.18011    0.76407    0.07272    1.000
    N1311    N        0.21752    0.76075    0.05017    1.000
    Si1312   Si       0.19388    0.89263    0.07214    1.000
    N1313    N        0.18918    0.91389    0.03409    1.000
    N1314    N        0.18847    0.92475    0.10239    1.000
    N1315    N        0.19060    0.98478    0.05796    1.000
    Si1316   Si       0.17286    0.00261    0.02443    1.000
    Si1317   Si       0.16664    0.95921    0.08495    1.000
    N1318    N        0.22453    0.97757    0.11505    1.000
    N1319    N        0.16781    0.78113    0.16209    1.000
    Si1320   Si       0.21235    0.78245    0.23456    1.000
    N1321    N        0.20757    0.81718    0.20797    1.000
    Si1322   Si       0.18005    0.81304    0.13496    1.000
    Si1323   Si       0.17997    0.84504    0.22318    1.000
    N1324    N        0.22239    0.82454    0.14059    1.000
    N1325    N        0.20752    0.93994    0.17039    1.000
    N1326    N        0.20506    0.98300    0.22452    1.000
    Si1327   Si       0.19674    0.97938    0.18190    1.000
    Si1328   Si       0.21923    0.93760    0.12894    1.000
    N1329    N        0.19007    0.88802    0.22177    1.000
    Si1330   Si       0.21922    0.90872    0.19850    1.000
    N1331    N        0.18663    0.80109    0.31701    1.000
    Si1332   Si       0.18109    0.81492    0.35823    1.000
    N1333    N        0.17522    0.77515    0.25721    1.000
    N1334    N        0.18260    0.84397    0.26905    1.000
    Si1335   Si       0.21513    0.82362    0.29287    1.000
    Si1336   Si       0.18425    0.76126    0.29685    1.000
    Si1337   Si       0.18019    0.89049    0.26499    1.000
    N1338    N        0.21519    0.90463    0.28606    1.000
    Si1339   Si       0.19396    0.98804    0.34848    1.000
    N1340    N        0.19548    0.90916    0.35326    1.000
    N1341    N        0.22512    0.96740    0.32656    1.000
    N1342    N        0.21106    0.84467    0.36717    1.000
    Si1343   Si       0.17189    0.83638    0.44197    1.000
    N1344    N        0.18452    0.77776    0.38009    1.000
    N1345    N        0.18657    0.79459    0.44330    1.000
    N1346    N        0.19740    0.85752    0.46819    1.000
    Si1347   Si       0.19559    0.78012    0.48142    1.000
    Si1348   Si       0.19843    0.88145    0.38701    1.000
    N1349    N        0.19083    0.97235    0.45138    1.000
    Si1350   Si       0.17040    0.88424    0.48941    1.000
    N1351    N        0.19318    0.99360    0.39164    1.000
    N1352    N        0.20085    0.91241    0.49576    1.000
    Si1353   Si       0.17787    0.00037    0.48059    1.000
    N1354    N        0.18092    0.82417    0.57803    1.000
    Si1355   Si       0.21179    0.78988    0.54202    1.000
    N1356    N        0.17451    0.79878    0.51682    1.000
    Si1357   Si       0.16989    0.86268    0.56168    1.000
    Si1358   Si       0.22077    0.82331    0.59926    1.000
    N1359    N        0.22426    0.99739    0.57197    1.000
    N1360    N        0.20844    0.88440    0.55784    1.000
    N1361    N        0.20826    0.94596    0.61185    1.000
    Si1362   Si       0.20580    0.92488    0.53554    1.000
    Si1363   Si       0.16937    0.94817    0.59524    1.000
    N1364    N        0.21792    0.99413    0.50295    1.000
    N1365    N        0.17053    0.94424    0.55088    1.000
    Si1366   Si       0.19865    0.00988    0.60802    1.000
    Si1367   Si       0.19137    0.83644    0.72247    1.000
    N1368    N        0.21073    0.80678    0.69689    1.000
    N1369    N        0.17209    0.87320    0.70797    1.000
    Si1370   Si       0.18341    0.79235    0.66579    1.000
    N1371    N        0.21140    0.79390    0.63036    1.000
    Si1372   Si       0.18568    0.91377    0.71569    1.000
    N1373    N        0.19624    0.00339    0.65126    1.000
    N1374    N        0.18686    0.93616    0.67844    1.000
    N1375    N        0.18124    0.83826    0.80619    1.000
    N1376    N        0.17935    0.77004    0.80124    1.000
    N1377    N        0.20676    0.77184    0.86628    1.000
    Si1378   Si       0.21768    0.77214    0.82331    1.000
    Si1379   Si       0.22258    0.84412    0.79337    1.000
    N1380    N        0.22421    0.84180    0.74891    1.000
    N1381    N        0.20402    0.95772    0.78443    1.000
    Si1382   Si       0.21650    0.97436    0.82295    1.000
    N1383    N        0.17462    0.89670    0.85249    1.000
    N1384    N        0.17611    0.98082    0.84170    1.000
    Si1385   Si       0.21940    0.89892    0.84452    1.000
    Si1386   Si       0.17839    0.80039    0.88070    1.000
    N1387    N        0.19780    0.80674    0.91964    1.000
    N1388    N        0.19107    0.78300    0.98240    1.000
    Si1389   Si       0.20152    0.84667    0.93596    1.000
    Si1390   Si       0.21498    0.77739    0.94727    1.000
    N1391    N        0.17148    0.84950    0.96609    1.000
    N1392    N        0.20219    0.88541    0.91779    1.000
    Si1393   Si       0.19914    0.98463    0.89878    1.000
    N1394    N        0.19831    0.00807    0.98884    1.000
    N1395    N        0.21479    0.97477    0.94017    1.000
    N1396    N        0.18082    0.92533    0.96428    1.000
    N1397    N        0.18717    0.94246    0.89592    1.000
    Si1398   Si       0.21330    0.92910    0.93180    1.000
    Si1399   Si       0.17967    0.96985    0.97022    1.000
    N1400    N        0.27032    0.07990    0.03687    1.000
    Si1401   Si       0.23369    0.09932    0.02176    1.000
    Si1402   Si       0.27272    0.03686    0.03681    1.000
    Si1403   Si       0.24148    0.12973    0.08966    1.000
    N1404    N        0.28089    0.11107    0.09486    1.000
    Si1405   Si       0.25621    0.21329    0.10455    1.000
    N1406    N        0.24604    0.21413    0.01493    1.000
    N1407    N        0.24576    0.16985    0.10437    1.000
    Si1408   Si       0.22952    0.24576    0.04000    1.000
    N1409    N        0.22442    0.22560    0.07788    1.000
    N1410    N        0.23127    0.08829    0.18607    1.000
    Si1411   Si       0.23799    0.01534    0.13044    1.000
    Si1412   Si       0.26535    0.08088    0.21199    1.000
    N1413    N        0.28061    0.01305    0.13726    1.000
    N1414    N        0.22240    0.21963    0.13829    1.000
    Si1415   Si       0.24778    0.17683    0.20592    1.000
    Si1416   Si       0.23119    0.24488    0.17077    1.000
    N1417    N        0.23300    0.21912    0.20534    1.000
    N1418    N        0.25509    0.03855    0.30869    1.000
    Si1419   Si       0.25047    0.12043    0.33020    1.000
    Si1420   Si       0.27377    0.06829    0.28482    1.000
    N1421    N        0.23812    0.09127    0.36007    1.000
    Si1422   Si       0.23437    0.05080    0.34690    1.000
    N1423    N        0.24488    0.07387    0.25065    1.000
    N1424    N        0.28451    0.10321    0.30863    1.000
    N1425    N        0.26817    0.15195    0.35561    1.000
    Si1426   Si       0.25861    0.24499    0.34472    1.000
    Si1427   Si       0.26445    0.20368    0.27665    1.000
    N1428    N        0.26263    0.20544    0.32219    1.000
    N1429    N        0.23543    0.23625    0.27139    1.000
    Si1430   Si       0.23055    0.17885    0.33890    1.000
    N1431    N        0.24442    0.17348    0.24973    1.000
    N1432    N        0.25967    0.02957    0.37634    1.000
    Si1433   Si       0.24590    0.08720    0.40412    1.000
    N1434    N        0.23887    0.12763    0.41639    1.000
    N1435    N        0.27803    0.06729    0.42806    1.000
    Si1436   Si       0.28147    0.02703    0.44282    1.000
    N1437    N        0.24477    0.24864    0.45195    1.000
    Si1438   Si       0.27379    0.14985    0.39958    1.000
    N1439    N        0.25355    0.19590    0.48466    1.000
    Si1440   Si       0.24177    0.20589    0.44224    1.000
    N1441    N        0.27257    0.18764    0.41759    1.000
    N1442    N        0.28556    0.24402    0.38198    1.000
    Si1443   Si       0.24821    0.23861    0.49594    1.000
    N1444    N        0.23823    0.05606    0.53100    1.000
    N1445    N        0.27085    0.06966    0.58395    1.000
    Si1446   Si       0.22791    0.06898    0.60176    1.000
    N1447    N        0.27628    0.12952    0.61351    1.000
    Si1448   Si       0.27925    0.02195    0.59188    1.000
    Si1449   Si       0.28005    0.06106    0.54133    1.000
    N1450    N        0.25164    0.13280    0.52648    1.000
    N1451    N        0.24525    0.20328    0.54862    1.000
    Si1452   Si       0.23377    0.17503    0.51782    1.000
    N1453    N        0.27884    0.25556    0.52214    1.000
    N1454    N        0.24421    0.02904    0.61882    1.000
    N1455    N        0.23617    0.04066    0.69115    1.000
    N1456    N        0.26101    0.10901    0.70136    1.000
    Si1457   Si       0.23205    0.08358    0.68298    1.000
    N1458    N        0.22755    0.09198    0.64039    1.000
    Si1459   Si       0.23421    0.13290    0.62502    1.000
    N1460    N        0.22595    0.22937    0.72267    1.000
    Si1461   Si       0.26559    0.21440    0.72717    1.000
    Si1462   Si       0.24313    0.14930    0.70333    1.000
    N1463    N        0.27792    0.23180    0.65200    1.000
    N1464    N        0.23346    0.15395    0.66181    1.000
    N1465    N        0.27594    0.17247    0.71854    1.000
    Si1466   Si       0.27284    0.11512    0.80155    1.000
    Si1467   Si       0.26935    0.02423    0.78122    1.000
    N1468    N        0.23709    0.09263    0.79750    1.000
    N1469    N        0.23053    0.03890    0.76286    1.000
    N1470    N        0.25895    0.15567    0.80542    1.000
    N1471    N        0.27026    0.21433    0.77222    1.000
    Si1472   Si       0.23384    0.20265    0.79528    1.000
    N1473    N        0.23865    0.20428    0.84027    1.000
    Si1474   Si       0.27237    0.17556    0.84097    1.000
    N1475    N        0.22548    0.11919    0.86843    1.000
    Si1476   Si       0.23871    0.11907    0.95350    1.000
    N1477    N        0.26663    0.10720    0.92195    1.000
    Si1478   Si       0.26710    0.11713    0.87933    1.000
    N1479    N        0.22559    0.08745    0.97986    1.000
    N1480    N        0.25589    0.02483    0.99522    1.000
    Si1481   Si       0.23570    0.23231    0.87181    1.000
    N1482    N        0.25809    0.14542    0.98121    1.000
    N1483    N        0.27350    0.22436    0.89043    1.000
    N1484    N        0.23596    0.20537    0.94980    1.000
    Si1485   Si       0.27416    0.20992    0.93163    1.000
    Si1486   Si       0.23442    0.18258    0.98603    1.000
    N1487    N        0.25882    0.27727    0.04798    1.000
    N1488    N        0.26737    0.34694    0.07273    1.000
    Si1489   Si       0.26747    0.31987    0.04037    1.000
    N1490    N        0.24839    0.34417    0.00982    1.000
    Si1491   Si       0.23162    0.37137    0.05831    1.000
    N1492    N        0.24502    0.45024    0.03003    1.000
    N1493    N        0.24799    0.45795    0.11185    1.000
    Si1494   Si       0.25174    0.41603    0.12045    1.000
    N1495    N        0.26257    0.27318    0.15581    1.000
    N1496    N        0.25524    0.32643    0.20415    1.000
    Si1497   Si       0.26150    0.31722    0.16216    1.000
    Si1498   Si       0.26874    0.38326    0.24911    1.000
    Si1499   Si       0.22529    0.49384    0.22423    1.000
    N1500    N        0.27683    0.40132    0.21320    1.000
    Si1501   Si       0.27905    0.48001    0.13428    1.000
    Si1502   Si       0.25198    0.43089    0.19443    1.000
    N1503    N        0.23807    0.45327    0.22770    1.000
    N1504    N        0.23633    0.40622    0.16053    1.000
    N1505    N        0.27669    0.46477    0.17471    1.000
    N1506    N        0.25661    0.35861    0.31947    1.000
    Si1507   Si       0.25562    0.27531    0.28126    1.000
    N1508    N        0.27818    0.27497    0.31870    1.000
    Si1509   Si       0.27865    0.31827    0.32804    1.000
    N1510    N        0.26855    0.31573    0.36946    1.000
    N1511    N        0.22955    0.36573    0.25303    1.000
    N1512    N        0.22820    0.30551    0.29436    1.000
    Si1513   Si       0.22343    0.34948    0.29213    1.000
    N1514    N        0.24655    0.42454    0.34426    1.000
    N1515    N        0.23987    0.47123    0.29313    1.000
    Si1516   Si       0.26567    0.45241    0.26298    1.000
    Si1517   Si       0.27443    0.39840    0.32340    1.000
    Si1518   Si       0.23546    0.46686    0.33706    1.000
    N1519    N        0.27566    0.41236    0.27890    1.000
    N1520    N        0.22304    0.30246    0.41944    1.000
    Si1521   Si       0.22927    0.33045    0.38544    1.000
    Si1522   Si       0.25263    0.29224    0.44820    1.000
    N1523    N        0.24314    0.32055    0.48220    1.000
    N1524    N        0.23237    0.37063    0.39863    1.000
    Si1525   Si       0.28172    0.34358    0.48834    1.000
    N1526    N        0.25295    0.47150    0.45431    1.000
    Si1527   Si       0.25037    0.38929    0.43417    1.000
    N1528    N        0.27164    0.42372    0.41192    1.000
    Si1529   Si       0.24553    0.45898    0.41137    1.000
    N1530    N        0.24897    0.48618    0.37424    1.000
    N1531    N        0.23894    0.34339    0.57766    1.000
    Si1532   Si       0.25976    0.37662    0.55871    1.000
    Si1533   Si       0.27193    0.27714    0.57889    1.000
    N1534    N        0.22817    0.27548    0.56661    1.000
    Si1535   Si       0.25470    0.33541    0.61790    1.000
    N1536    N        0.26565    0.29261    0.61905    1.000
    Si1537   Si       0.23708    0.42206    0.50351    1.000
    N1538    N        0.22676    0.39621    0.53867    1.000
    N1539    N        0.27887    0.43162    0.50002    1.000
    N1540    N        0.23590    0.32873    0.71566    1.000
    Si1541   Si       0.26886    0.27322    0.65788    1.000
    Si1542   Si       0.28057    0.32790    0.71569    1.000
    N1543    N        0.22618    0.27492    0.67149    1.000
    N1544    N        0.22785    0.34767    0.64868    1.000
    N1545    N        0.27063    0.50769    0.71727    1.000
    N1546    N        0.23399    0.40581    0.68624    1.000
    Si1547   Si       0.23395    0.46196    0.63122    1.000
    N1548    N        0.27927    0.46664    0.63124    1.000
    Si1549   Si       0.23034    0.50433    0.69622    1.000
    Si1550   Si       0.27636    0.40555    0.69592    1.000
    N1551    N        0.23501    0.30180    0.78509    1.000
    Si1552   Si       0.26636    0.37732    0.82390    1.000
    N1553    N        0.27756    0.35555    0.78829    1.000
    Si1554   Si       0.27764    0.31249    0.78510    1.000
    N1555    N        0.24337    0.26894    0.84998    1.000
    N1556    N        0.27832    0.36477    0.86259    1.000
    Si1557   Si       0.28579    0.28110    0.85990    1.000
    N1558    N        0.24872    0.40917    0.76037    1.000
    N1559    N        0.26537    0.48126    0.78211    1.000
    N1560    N        0.25083    0.45475    0.84831    1.000
    Si1561   Si       0.25573    0.45220    0.75203    1.000
    Si1562   Si       0.25024    0.49341    0.86795    1.000
    N1563    N        0.22948    0.27299    0.93651    1.000
    Si1564   Si       0.25422    0.33979    0.88808    1.000
    N1565    N        0.24186    0.35471    0.92592    1.000
    Si1566   Si       0.27260    0.28115    0.93213    1.000
    Si1567   Si       0.24639    0.33685    0.96671    1.000
    N1568    N        0.27779    0.30217    0.89510    1.000
    N1569    N        0.28173    0.31277    0.96250    1.000
    N1570    N        0.23562    0.43297    0.95690    1.000
    Si1571   Si       0.27855    0.43027    0.95377    1.000
    N1572    N        0.22440    0.48445    0.90282    1.000
    N1573    N        0.25762    0.56814    0.09354    1.000
    Si1574   Si       0.26406    0.60564    0.07278    1.000
    N1575    N        0.25245    0.51626    0.04649    1.000
    N1576    N        0.26753    0.63497    0.10176    1.000
    N1577    N        0.26102    0.71244    0.02329    1.000
    N1578    N        0.26087    0.74169    0.10490    1.000
    Si1579   Si       0.22582    0.64857    0.09287    1.000
    Si1580   Si       0.23847    0.54413    0.12519    1.000
    N1581    N        0.25775    0.51891    0.20807    1.000
    N1582    N        0.27691    0.52198    0.13153    1.000
    Si1583   Si       0.24701    0.55912    0.19660    1.000
    N1584    N        0.22810    0.56965    0.15841    1.000
    Si1585   Si       0.27850    0.66163    0.24807    1.000
    N1586    N        0.24077    0.63444    0.18178    1.000
    Si1587   Si       0.22950    0.67547    0.18635    1.000
    Si1588   Si       0.26242    0.72831    0.22389    1.000
    N1589    N        0.23093    0.69602    0.15043    1.000
    N1590    N        0.24843    0.68572    0.22678    1.000
    N1591    N        0.22486    0.74716    0.21407    1.000
    N1592    N        0.24681    0.55161    0.34122    1.000
    N1593    N        0.26676    0.62098    0.25864    1.000
    N1594    N        0.24720    0.63604    0.35545    1.000
    N1595    N        0.27911    0.73777    0.26117    1.000
    N1596    N        0.25875    0.69738    0.32828    1.000
    Si1597   Si       0.26735    0.67423    0.36427    1.000
    Si1598   Si       0.24006    0.53009    0.37780    1.000
    N1599    N        0.23640    0.59556    0.47277    1.000
    N1600    N        0.25432    0.54706    0.41733    1.000
    Si1601   Si       0.27629    0.61091    0.47738    1.000
    Si1602   Si       0.22778    0.55832    0.44953    1.000
    Si1603   Si       0.24595    0.67614    0.48751    1.000
    N1604    N        0.27778    0.65383    0.46645    1.000
    N1605    N        0.26455    0.74960    0.44099    1.000
    N1606    N        0.27241    0.68719    0.40486    1.000
    Si1607   Si       0.24478    0.71537    0.42383    1.000
    N1608    N        0.26562    0.58836    0.57286    1.000
    N1609    N        0.26338    0.53215    0.53304    1.000
    N1610    N        0.27974    0.53811    0.61165    1.000
    Si1611   Si       0.23721    0.52901    0.61890    1.000
    N1612    N        0.25294    0.68498    0.57516    1.000
    Si1613   Si       0.24668    0.68741    0.61866    1.000
    N1614    N        0.27651    0.70440    0.50967    1.000
    N1615    N        0.26784    0.75606    0.60509    1.000
    N1616    N        0.22576    0.64792    0.51460    1.000
    Si1617   Si       0.26269    0.63685    0.65137    1.000
    N1618    N        0.26974    0.59551    0.64482    1.000
    Si1619   Si       0.27427    0.56032    0.66982    1.000
    Si1620   Si       0.25696    0.54441    0.73338    1.000
    N1621    N        0.26798    0.57826    0.71053    1.000
    N1622    N        0.24178    0.53073    0.66315    1.000
    Si1623   Si       0.28132    0.61756    0.71884    1.000
    Si1624   Si       0.23456    0.75716    0.63323    1.000
    N1625    N        0.25356    0.76139    0.67086    1.000
    N1626    N        0.26296    0.64481    0.69325    1.000
    N1627    N        0.23422    0.75007    0.73909    1.000
    Si1628   Si       0.22392    0.66224    0.69371    1.000
    N1629    N        0.22191    0.65730    0.64327    1.000
    N1630    N        0.25953    0.55038    0.77555    1.000
    N1631    N        0.23999    0.51989    0.83546    1.000
    N1632    N        0.23792    0.60096    0.84789    1.000
    Si1633   Si       0.23909    0.51436    0.79299    1.000
    N1634    N        0.25196    0.66733    0.81463    1.000
    Si1635   Si       0.25443    0.70626    0.83257    1.000
    Si1636   Si       0.26318    0.74578    0.77186    1.000
    Si1637   Si       0.26291    0.66763    0.77025    1.000
    N1638    N        0.24374    0.74062    0.80915    1.000
    N1639    N        0.28254    0.70515    0.76181    1.000
    N1640    N        0.22494    0.66979    0.74711    1.000
    Si1641   Si       0.24764    0.59273    0.89018    1.000
    N1642    N        0.25477    0.52859    0.94731    1.000
    Si1643   Si       0.26113    0.56164    0.97701    1.000
    N1644    N        0.23229    0.62189    0.91836    1.000
    N1645    N        0.27519    0.60141    0.97281    1.000
    N1646    N        0.28395    0.51445    0.88730    1.000
    N1647    N        0.22330    0.56265    0.99902    1.000
    N1648    N        0.26980    0.75114    0.89836    1.000
    N1649    N        0.24286    0.66202    0.97469    1.000
    Si1650   Si       0.26114    0.63406    0.94902    1.000
    Si1651   Si       0.22747    0.74180    0.89100    1.000
    Si1652   Si       0.27306    0.68872    0.98841    1.000
    Si1653   Si       0.25530    0.84703    0.04516    1.000
    Si1654   Si       0.24832    0.84235    0.11098    1.000
    N1655    N        0.25447    0.81402    0.07588    1.000
    Si1656   Si       0.25372    0.76977    0.07367    1.000
    N1657    N        0.24053    0.81917    0.01257    1.000
    N1658    N        0.23253    0.87452    0.08029    1.000
    N1659    N        0.25526    0.88503    0.02046    1.000
    N1660    N        0.24459    0.94034    0.06115    1.000
    Si1661   Si       0.23461    0.98117    0.07080    1.000
    Si1662   Si       0.26426    0.90979    0.08353    1.000
    Si1663   Si       0.23156    0.91994    0.02572    1.000
    N1664    N        0.26573    0.01039    0.07053    1.000
    Si1665   Si       0.23929    0.83071    0.18207    1.000
    N1666    N        0.24407    0.87383    0.18087    1.000
    N1667    N        0.27523    0.81296    0.20325    1.000
    N1668    N        0.24728    0.92501    0.22701    1.000
    N1669    N        0.25837    0.91671    0.12574    1.000
    Si1670   Si       0.27635    0.89025    0.15505    1.000
    N1671    N        0.27502    0.97583    0.20308    1.000
    Si1672   Si       0.24507    0.97091    0.23559    1.000
    N1673    N        0.24881    0.83993    0.31721    1.000
    Si1674   Si       0.27570    0.77632    0.28260    1.000
    Si1675   Si       0.25331    0.83144    0.35967    1.000
    N1676    N        0.23592    0.79265    0.27144    1.000
    N1677    N        0.25335    0.78842    0.36596    1.000
    N1678    N        0.26449    0.86134    0.25948    1.000
    Si1679   Si       0.25270    0.90328    0.26440    1.000
    N1680    N        0.26517    0.98119    0.27226    1.000
    N1681    N        0.27078    0.92474    0.29927    1.000
    N1682    N        0.26072    0.90469    0.35577    1.000
    Si1683   Si       0.23586    0.00038    0.29770    1.000
    Si1684   Si       0.23009    0.92165    0.32571    1.000
    Si1685   Si       0.26402    0.77693    0.47452    1.000
    N1686    N        0.27256    0.84871    0.39470    1.000
    N1687    N        0.26887    0.81542    0.45598    1.000
    N1688    N        0.26730    0.87974    0.47435    1.000
    Si1689   Si       0.23261    0.97389    0.46798    1.000
    N1690    N        0.24539    0.00322    0.43847    1.000
    N1691    N        0.25454    0.93797    0.46784    1.000
    Si1692   Si       0.22839    0.89827    0.46229    1.000
    Si1693   Si       0.26493    0.89239    0.39652    1.000
    N1694    N        0.22666    0.89651    0.41824    1.000
    N1695    N        0.24328    0.81391    0.56214    1.000
    N1696    N        0.23722    0.86041    0.60976    1.000
    N1697    N        0.23406    0.77915    0.50376    1.000
    N1698    N        0.28349    0.87182    0.55873    1.000
    Si1699   Si       0.28335    0.82826    0.55755    1.000
    Si1700   Si       0.24773    0.89067    0.57512    1.000
    N1701    N        0.24477    0.93277    0.55041    1.000
    Si1702   Si       0.24150    0.95843    0.58593    1.000
    N1703    N        0.26569    0.91523    0.60927    1.000
    Si1704   Si       0.24359    0.78099    0.70830    1.000
    Si1705   Si       0.26772    0.84341    0.74035    1.000
    N1706    N        0.27906    0.80819    0.71820    1.000
    Si1707   Si       0.26311    0.87947    0.63863    1.000
    Si1708   Si       0.26120    0.90655    0.70925    1.000
    N1709    N        0.25353    0.97088    0.66402    1.000
    N1710    N        0.22556    0.91427    0.73442    1.000
    N1711    N        0.24559    0.90358    0.66925    1.000
    Si1712   Si       0.22333    0.93907    0.65434    1.000
    Si1713   Si       0.23971    0.01143    0.65978    1.000
    N1714    N        0.24018    0.80850    0.81572    1.000
    N1715    N        0.24399    0.87355    0.86870    1.000
    Si1716   Si       0.28215    0.81189    0.80535    1.000
    N1717    N        0.27899    0.84824    0.78144    1.000
    N1718    N        0.24719    0.00232    0.81549    1.000
    N1719    N        0.23712    0.93897    0.83850    1.000
    N1720    N        0.27556    0.92732    0.78288    1.000
    Si1721   Si       0.23130    0.92437    0.77599    1.000
    Si1722   Si       0.27936    0.93570    0.82560    1.000
    Si1723   Si       0.26931    0.00234    0.85399    1.000
    N1724    N        0.23706    0.99593    0.87914    1.000
    N1725    N        0.22532    0.88790    0.80026    1.000
    Si1726   Si       0.25136    0.87954    0.91182    1.000
    N1727    N        0.24502    0.84863    0.94537    1.000
    N1728    N        0.25650    0.78258    0.95916    1.000
    Si1729   Si       0.26305    0.82248    0.97568    1.000
    Si1730   Si       0.23784    0.98889    0.97638    1.000
    N1731    N        0.23896    0.94858    0.99470    1.000
    Si1732   Si       0.27375    0.93729    0.96802    1.000
    N1733    N        0.25455    0.91805    0.93500    1.000
    N1734    N        0.31536    0.05429    0.08136    1.000
    Si1735   Si       0.30197    0.09307    0.06250    1.000
    N1736    N        0.31107    0.02940    0.01902    1.000
    N1737    N        0.33472    0.11577    0.04290    1.000
    Si1738   Si       0.30009    0.01605    0.09841    1.000
    Si1739   Si       0.31864    0.12596    0.11985    1.000
    Si1740   Si       0.31926    0.20493    0.10028    1.000
    N1741    N        0.30757    0.24228    0.01134    1.000
    N1742    N        0.30831    0.17089    0.01660    1.000
    N1743    N        0.32083    0.16290    0.09412    1.000
    Si1744   Si       0.33374    0.15812    0.05061    1.000
    N1745    N        0.29155    0.22023    0.06910    1.000
    Si1746   Si       0.28717    0.20614    0.02463    1.000
    N1747    N        0.29630    0.10741    0.22909    1.000
    Si1748   Si       0.32680    0.07252    0.17612    1.000
    N1749    N        0.31670    0.11364    0.16178    1.000
    N1750    N        0.29031    0.05058    0.19269    1.000
    Si1751   Si       0.28813    0.00908    0.17913    1.000
    Si1752   Si       0.32942    0.08618    0.24883    1.000
    N1753    N        0.30910    0.23670    0.19115    1.000
    N1754    N        0.34236    0.15661    0.22556    1.000
    Si1755   Si       0.30186    0.25499    0.15253    1.000
    Si1756   Si       0.31217    0.13640    0.20182    1.000
    N1757    N        0.28804    0.17147    0.19248    1.000
    Si1758   Si       0.31299    0.19917    0.17128    1.000
    N1759    N        0.29418    0.21700    0.13439    1.000
    Si1760   Si       0.31133    0.24960    0.23308    1.000
    N1761    N        0.31058    0.05200    0.27224    1.000
    Si1762   Si       0.32829    0.01766    0.29515    1.000
    Si1763   Si       0.32371    0.12402    0.31068    1.000
    N1764    N        0.34097    0.12101    0.34991    1.000
    N1765    N        0.30272    0.21218    0.25640    1.000
    N1766    N        0.31802    0.16534    0.30227    1.000
    Si1767   Si       0.33380    0.18154    0.26327    1.000
    Si1768   Si       0.29771    0.17895    0.33709    1.000
    Si1769   Si       0.30339    0.02729    0.37772    1.000
    N1770    N        0.32524    0.06450    0.38143    1.000
    N1771    N        0.29427    0.02712    0.48245    1.000
    Si1772   Si       0.31656    0.08377    0.41900    1.000
    N1773    N        0.30910    0.12658    0.41166    1.000
    N1774    N        0.31711    0.21264    0.45307    1.000
    N1775    N        0.32329    0.18590    0.37027    1.000
    Si1776   Si       0.32763    0.13581    0.45040    1.000
    N1777    N        0.30902    0.14703    0.48668    1.000
    Si1778   Si       0.30977    0.21472    0.40809    1.000
    Si1779   Si       0.29791    0.18898    0.48306    1.000
    N1780    N        0.30608    0.09023    0.52492    1.000
    N1781    N        0.29649    0.02165    0.54826    1.000
    Si1782   Si       0.32204    0.01905    0.51377    1.000
    N1783    N        0.33270    0.10187    0.60871    1.000
    Si1784   Si       0.29441    0.13322    0.52721    1.000
    N1785    N        0.31551    0.02909    0.61358    1.000
    Si1786   Si       0.29320    0.08871    0.61878    1.000
    Si1787   Si       0.34118    0.08750    0.50036    1.000
    N1788    N        0.32056    0.14899    0.56037    1.000
    Si1789   Si       0.31689    0.14436    0.60373    1.000
    N1790    N        0.31640    0.20303    0.51798    1.000
    N1791    N        0.29514    0.23790    0.58455    1.000
    Si1792   Si       0.28722    0.21977    0.54674    1.000
    Si1793   Si       0.31387    0.01811    0.72669    1.000
    Si1794   Si       0.30061    0.09233    0.69719    1.000
    Si1795   Si       0.32529    0.03617    0.65517    1.000
    N1796    N        0.30485    0.05968    0.72610    1.000
    N1797    N        0.30011    0.07168    0.66029    1.000
    N1798    N        0.32906    0.12356    0.70597    1.000
    N1799    N        0.32549    0.17934    0.62611    1.000
    Si1800   Si       0.33517    0.23637    0.68937    1.000
    Si1801   Si       0.31000    0.14984    0.73492    1.000
    N1802    N        0.34170    0.24212    0.64733    1.000
    N1803    N        0.29878    0.23895    0.71520    1.000
    Si1804   Si       0.30969    0.22197    0.62182    1.000
    Si1805   Si       0.31655    0.08027    0.76072    1.000
    Si1806   Si       0.31337    0.06490    0.83544    1.000
    N1807    N        0.29791    0.11799    0.76681    1.000
    N1808    N        0.30008    0.05344    0.79325    1.000
    N1809    N        0.28558    0.04218    0.86200    1.000
    N1810    N        0.28856    0.10303    0.84118    1.000
    N1811    N        0.34416    0.02278    0.83978    1.000
    Si1812   Si       0.31112    0.21017    0.78648    1.000
    N1813    N        0.30772    0.19965    0.82907    1.000
    N1814    N        0.33177    0.18101    0.75939    1.000
    N1815    N        0.32996    0.24955    0.78408    1.000
    Si1816   Si       0.31180    0.21898    0.86741    1.000
    Si1817   Si       0.30402    0.09016    0.93913    1.000
    N1818    N        0.31857    0.11253    0.97393    1.000
    Si1819   Si       0.30622    0.04020    0.90185    1.000
    Si1820   Si       0.29731    0.02146    0.97792    1.000
    N1821    N        0.29390    0.04807    0.94509    1.000
    N1822    N        0.32750    0.07910    0.90444    1.000
    N1823    N        0.29312    0.24639    0.94586    1.000
    N1824    N        0.28339    0.15949    0.87860    1.000
    Si1825   Si       0.29957    0.15206    0.97624    1.000
    Si1826   Si       0.32054    0.16872    0.90005    1.000
    N1827    N        0.30261    0.17662    0.93947    1.000
    Si1828   Si       0.32652    0.24488    0.97387    1.000
    N1829    N        0.30828    0.31320    0.02465    1.000
    N1830    N        0.33107    0.27962    0.07404    1.000
    Si1831   Si       0.29687    0.35776    0.10429    1.000
    N1832    N        0.33714    0.35109    0.08505    1.000
    Si1833   Si       0.29834    0.26124    0.05190    1.000
    Si1834   Si       0.34121    0.31724    0.05525    1.000
    N1835    N        0.30990    0.47944    0.01644    1.000
    Si1836   Si       0.32285    0.42667    0.10146    1.000
    N1837    N        0.31797    0.42935    0.05801    1.000
    N1838    N        0.29091    0.40095    0.11262    1.000
    Si1839   Si       0.28747    0.44365    0.02759    1.000
    N1840    N        0.28465    0.28133    0.24875    1.000
    Si1841   Si       0.29101    0.31848    0.22736    1.000
    N1842    N        0.29762    0.33584    0.14266    1.000
    N1843    N        0.33604    0.27829    0.14104    1.000
    Si1844   Si       0.33551    0.31776    0.15952    1.000
    N1845    N        0.32608    0.31407    0.20266    1.000
    N1846    N        0.31955    0.46275    0.12318    1.000
    Si1847   Si       0.29323    0.49083    0.20527    1.000
    N1848    N        0.30058    0.47281    0.24579    1.000
    N1849    N        0.33278    0.49812    0.18974    1.000
    N1850    N        0.31996    0.32763    0.32057    1.000
    Si1851   Si       0.32739    0.35014    0.28417    1.000
    N1852    N        0.29485    0.34878    0.25639    1.000
    N1853    N        0.31516    0.40144    0.34018    1.000
    N1854    N        0.33445    0.46084    0.30238    1.000
    Si1855   Si       0.33763    0.48787    0.33432    1.000
    Si1856   Si       0.34076    0.47488    0.26086    1.000
    Si1857   Si       0.32852    0.30817    0.45225    1.000
    Si1858   Si       0.29539    0.28560    0.38738    1.000
    N1859    N        0.29207    0.29622    0.42941    1.000
    N1860    N        0.31090    0.31210    0.49340    1.000
    N1861    N        0.33890    0.28870    0.37700    1.000
    Si1862   Si       0.32406    0.38225    0.44097    1.000
    N1863    N        0.28468    0.36697    0.45051    1.000
    N1864    N        0.33664    0.40478    0.40557    1.000
    N1865    N        0.33105    0.47265    0.37367    1.000
    Si1866   Si       0.31043    0.44013    0.39847    1.000
    N1867    N        0.32009    0.46446    0.43673    1.000
    Si1868   Si       0.29303    0.46296    0.47098    1.000
    Si1869   Si       0.34082    0.49360    0.41104    1.000
    N1870    N        0.33620    0.39748    0.48039    1.000
    N1871    N        0.30211    0.30514    0.56319    1.000
    Si1872   Si       0.31252    0.28431    0.52616    1.000
    Si1873   Si       0.33758    0.32569    0.57811    1.000
    N1874    N        0.34117    0.30413    0.61768    1.000
    N1875    N        0.28565    0.36931    0.52246    1.000
    N1876    N        0.34249    0.37025    0.58829    1.000
    Si1877   Si       0.31110    0.39102    0.61351    1.000
    N1878    N        0.33643    0.42643    0.54528    1.000
    Si1879   Si       0.30871    0.44124    0.57734    1.000
    N1880    N        0.29906    0.48090    0.56712    1.000
    Si1881   Si       0.29872    0.49973    0.60840    1.000
    Si1882   Si       0.30952    0.40506    0.51350    1.000
    N1883    N        0.31873    0.48542    0.50087    1.000
    N1884    N        0.33526    0.43279    0.61242    1.000
    Si1885   Si       0.30077    0.50958    0.53429    1.000
    N1886    N        0.28310    0.40716    0.58256    1.000
    N1887    N        0.29214    0.35563    0.62757    1.000
    N1888    N        0.29165    0.37018    0.71720    1.000
    Si1889   Si       0.31711    0.32442    0.64797    1.000
    Si1890   Si       0.33111    0.37919    0.69521    1.000
    N1891    N        0.28838    0.30795    0.67805    1.000
    Si1892   Si       0.32109    0.26543    0.74287    1.000
    N1893    N        0.34530    0.34398    0.67256    1.000
    N1894    N        0.33855    0.50490    0.62083    1.000
    N1895    N        0.31041    0.40820    0.66605    1.000
    Si1896   Si       0.30595    0.48007    0.71628    1.000
    Si1897   Si       0.31442    0.44844    0.65059    1.000
    N1898    N        0.32689    0.47686    0.67915    1.000
    N1899    N        0.28215    0.44343    0.71868    1.000
    Si1900   Si       0.33547    0.27441    0.81822    1.000
    N1901    N        0.29708    0.29588    0.81886    1.000
    Si1902   Si       0.31890    0.37892    0.86874    1.000
    N1903    N        0.29493    0.30083    0.74728    1.000
    N1904    N        0.32672    0.25852    0.85883    1.000
    Si1905   Si       0.29047    0.38899    0.76230    1.000
    N1906    N        0.33383    0.39069    0.76627    1.000
    Si1907   Si       0.29088    0.44108    0.84070    1.000
    Si1908   Si       0.33671    0.40098    0.80999    1.000
    N1909    N        0.29395    0.41044    0.80829    1.000
    Si1910   Si       0.30803    0.49184    0.79163    1.000
    N1911    N        0.31766    0.47531    0.83106    1.000
    N1912    N        0.32988    0.47946    0.75573    1.000
    N1913    N        0.31467    0.42029    0.87251    1.000
    Si1914   Si       0.32031    0.31476    0.98179    1.000
    N1915    N        0.33721    0.35593    0.98274    1.000
    N1916    N        0.34062    0.35499    0.89638    1.000
    Si1917   Si       0.28825    0.50594    0.92911    1.000
    Si1918   Si       0.32316    0.44025    0.90992    1.000
    N1919    N        0.29368    0.46434    0.93295    1.000
    N1920    N        0.31455    0.40757    0.93736    1.000
    Si1921   Si       0.32532    0.39671    0.97793    1.000
    N1922    N        0.28957    0.41676    0.99495    1.000
    N1923    N        0.31708    0.52883    0.06833    1.000
    Si1924   Si       0.29747    0.54770    0.10119    1.000
    Si1925   Si       0.29358    0.51702    0.03337    1.000
    N1926    N        0.29339    0.60534    0.04090    1.000
    N1927    N        0.32924    0.57252    0.11688    1.000
    N1928    N        0.29473    0.54414    0.99957    1.000
    Si1929   Si       0.30729    0.61566    0.00216    1.000
    N1930    N        0.31419    0.70243    0.07132    1.000
    Si1931   Si       0.29927    0.72590    0.03749    1.000
    Si1932   Si       0.29951    0.72018    0.10626    1.000
    N1933    N        0.33838    0.64234    0.09429    1.000
    N1934    N        0.33495    0.72668    0.01372    1.000
    N1935    N        0.30698    0.66144    0.99847    1.000
    N1936    N        0.28295    0.58372    0.20636    1.000
    N1937    N        0.31005    0.62111    0.15481    1.000
    Si1938   Si       0.28358    0.62350    0.18904    1.000
    Si1939   Si       0.30299    0.64707    0.12236    1.000
    N1940    N        0.32986    0.73991    0.13101    1.000
    N1941    N        0.29078    0.74198    0.19006    1.000
    N1942    N        0.29876    0.68732    0.13757    1.000
    N1943    N        0.30549    0.65222    0.21417    1.000
    Si1944   Si       0.31682    0.71688    0.16616    1.000
    N1945    N        0.30264    0.59318    0.31831    1.000
    N1946    N        0.31078    0.52323    0.32739    1.000
    N1947    N        0.33566    0.59682    0.25394    1.000
    Si1948   Si       0.28774    0.61775    0.35157    1.000
    Si1949   Si       0.29369    0.58768    0.24882    1.000
    Si1950   Si       0.28371    0.55435    0.31675    1.000
    N1951    N        0.28295    0.55306    0.27211    1.000
    N1952    N        0.33911    0.71538    0.31195    1.000
    N1953    N        0.30188    0.67856    0.27901    1.000
    N1954    N        0.30737    0.65487    0.35461    1.000
    Si1955   Si       0.29243    0.71665    0.30158    1.000
    N1956    N        0.30360    0.58954    0.45315    1.000
    Si1957   Si       0.29391    0.56535    0.41702    1.000
    N1958    N        0.32578    0.53677    0.41335    1.000
    Si1959   Si       0.33829    0.61800    0.45331    1.000
    N1960    N        0.29109    0.59240    0.38467    1.000
    N1961    N        0.33058    0.64727    0.42292    1.000
    N1962    N        0.31988    0.70841    0.44928    1.000
    Si1963   Si       0.30930    0.75465    0.43628    1.000
    Si1964   Si       0.29939    0.67216    0.43473    1.000
    Si1965   Si       0.31139    0.71967    0.49007    1.000
    N1966    N        0.32288    0.54699    0.53872    1.000
    N1967    N        0.32597    0.60707    0.60524    1.000
    N1968    N        0.29758    0.60459    0.51453    1.000
    Si1969   Si       0.32906    0.63155    0.52781    1.000
    Si1970   Si       0.29011    0.57995    0.60906    1.000
    Si1971   Si       0.28548    0.57108    0.53935    1.000
    Si1972   Si       0.32173    0.65011    0.60278    1.000
    N1973    N        0.31329    0.72761    0.56660    1.000
    N1974    N        0.31472    0.65872    0.55852    1.000
    Si1975   Si       0.28865    0.69463    0.55357    1.000
    Si1976   Si       0.30942    0.75832    0.59965    1.000
    N1977    N        0.32314    0.61469    0.69893    1.000
    N1978    N        0.31733    0.54948    0.67582    1.000
    Si1979   Si       0.33952    0.57391    0.70971    1.000
    N1980    N        0.31601    0.73047    0.64169    1.000
    Si1981   Si       0.31878    0.68948    0.64941    1.000
    Si1982   Si       0.31678    0.70949    0.72921    1.000
    N1983    N        0.32523    0.68457    0.69345    1.000
    N1984    N        0.30303    0.74713    0.71218    1.000
    Si1985   Si       0.29704    0.75935    0.67088    1.000
    N1986    N        0.28743    0.66543    0.62886    1.000
    N1987    N        0.32468    0.53098    0.79793    1.000
    N1988    N        0.31224    0.59935    0.81513    1.000
    Si1989   Si       0.33191    0.62648    0.76513    1.000
    Si1990   Si       0.29790    0.56683    0.78834    1.000
    N1991    N        0.32936    0.58104    0.75577    1.000
    Si1992   Si       0.33645    0.62632    0.83470    1.000
    N1993    N        0.34388    0.55204    0.86970    1.000
    N1994    N        0.29214    0.63843    0.75387    1.000
    Si1995   Si       0.33048    0.68928    0.85673    1.000
    N1996    N        0.29460    0.71079    0.84590    1.000
    N1997    N        0.32213    0.64834    0.86823    1.000
    N1998    N        0.29012    0.58910    0.89653    1.000
    Si1999   Si       0.31536    0.62448    0.90370    1.000
    N2000    N        0.31810    0.53847    0.93827    1.000
    Si2001   Si       0.31002    0.54990    0.89696    1.000
    Si2002   Si       0.33661    0.55185    0.97804    1.000
    N2003    N        0.34135    0.59571    0.98559    1.000
    N2004    N        0.29754    0.65321    0.92947    1.000
    Si2005   Si       0.28451    0.75455    0.94110    1.000
    N2006    N        0.32897    0.71092    0.89761    1.000
    Si2007   Si       0.30620    0.74259    0.87597    1.000
    Si2008   Si       0.32119    0.69323    0.93495    1.000
    N2009    N        0.28926    0.71634    0.95913    1.000
    Si2010   Si       0.31191    0.80441    0.05625    1.000
    N2011    N        0.29805    0.84084    0.03559    1.000
    N2012    N        0.33358    0.81189    0.09182    1.000
    N2013    N        0.29025    0.76623    0.05175    1.000
    Si2014   Si       0.33611    0.83143    0.00298    1.000
    Si2015   Si       0.30207    0.88613    0.02221    1.000
    N2016    N        0.30076    0.90267    0.06261    1.000
    N2017    N        0.33876    0.99648    0.10339    1.000
    Si2018   Si       0.32284    0.83396    0.12959    1.000
    N2019    N        0.32479    0.79942    0.15648    1.000
    Si2020   Si       0.30465    0.78405    0.19167    1.000
    N2021    N        0.32391    0.86149    0.22576    1.000
    N2022    N        0.33822    0.78044    0.22087    1.000
    N2023    N        0.28525    0.85416    0.13057    1.000
    Si2024   Si       0.28932    0.83802    0.23432    1.000
    N2025    N        0.33222    0.99962    0.18348    1.000
    Si2026   Si       0.29133    0.93448    0.21054    1.000
    N2027    N        0.30566    0.91033    0.17752    1.000
    N2028    N        0.30833    0.92284    0.24821    1.000
    N2029    N        0.30479    0.82524    0.33660    1.000
    Si2030   Si       0.29967    0.78391    0.35538    1.000
    N2031    N        0.30118    0.80997    0.26947    1.000
    N2032    N        0.31490    0.87455    0.29692    1.000
    Si2033   Si       0.34002    0.84958    0.34977    1.000
    Si2034   Si       0.34152    0.79356    0.26235    1.000
    Si2035   Si       0.28628    0.84199    0.29934    1.000
    N2036    N        0.28848    0.75858    0.31986    1.000
    Si2037   Si       0.33192    0.88834    0.25896    1.000
    N2038    N        0.32559    0.88820    0.36139    1.000
    N2039    N        0.32820    0.98491    0.26311    1.000
    N2040    N        0.32598    0.94319    0.31904    1.000
    Si2041   Si       0.30128    0.90645    0.32948    1.000
    Si2042   Si       0.29985    0.95204    0.27960    1.000
    Si2043   Si       0.34081    0.97224    0.34793    1.000
    N2044    N        0.31853    0.00935    0.33809    1.000
    Si2045   Si       0.29548    0.82394    0.42138    1.000
    N2046    N        0.30459    0.78532    0.40374    1.000
    N2047    N        0.32353    0.84609    0.44960    1.000
    Si2048   Si       0.29083    0.84441    0.48093    1.000
    N2049    N        0.30988    0.76390    0.48379    1.000
    N2050    N        0.29699    0.90725    0.42110    1.000
    Si2051   Si       0.29294    0.91686    0.46565    1.000
    N2052    N        0.33242    0.95429    0.38754    1.000
    Si2053   Si       0.33254    0.91172    0.39634    1.000
    Si2054   Si       0.33801    0.97767    0.42489    1.000
    N2055    N        0.32597    0.95514    0.45897    1.000
    N2056    N        0.31276    0.00998    0.41734    1.000
    N2057    N        0.30937    0.80958    0.58726    1.000
    N2058    N        0.29748    0.82124    0.51725    1.000
    Si2059   Si       0.32960    0.79514    0.50779    1.000
    Si2060   Si       0.31580    0.89657    0.54799    1.000
    N2061    N        0.32637    0.93136    0.57443    1.000
    Si2062   Si       0.31878    0.97557    0.56276    1.000
    Si2063   Si       0.30051    0.93880    0.60915    1.000
    N2064    N        0.31695    0.91171    0.50457    1.000
    N2065    N        0.33424    0.97768    0.52100    1.000
    N2066    N        0.28287    0.97599    0.59213    1.000
    Si2067   Si       0.32417    0.82452    0.62814    1.000
    Si2068   Si       0.30447    0.83399    0.68874    1.000
    N2069    N        0.29912    0.85595    0.64852    1.000
    N2070    N        0.31414    0.79750    0.66102    1.000
    Si2071   Si       0.30821    0.78154    0.73743    1.000
    N2072    N        0.28719    0.87123    0.71309    1.000
    Si2073   Si       0.33080    0.88305    0.71948    1.000
    N2074    N        0.31298    0.00494    0.68494    1.000
    N2075    N        0.29012    0.93942    0.71340    1.000
    Si2076   Si       0.29438    0.96441    0.67918    1.000
    N2077    N        0.31635    0.94191    0.64960    1.000
    N2078    N        0.29927    0.82758    0.84331    1.000
    N2079    N        0.29191    0.77838    0.77848    1.000
    Si2080   Si       0.33765    0.81498    0.85983    1.000
    N2081    N        0.33484    0.76908    0.85811    1.000
    Si2082   Si       0.28634    0.86537    0.85937    1.000
    N2083    N        0.33116    0.88639    0.76356    1.000
    Si2084   Si       0.29837    0.88649    0.79050    1.000
    N2085    N        0.29782    0.89704    0.83260    1.000
    N2086    N        0.29815    0.96984    0.84441    1.000
    Si2087   Si       0.33309    0.98679    0.86325    1.000
    Si2088   Si       0.29763    0.95446    0.75513    1.000
    N2089    N        0.29004    0.99724    0.75453    1.000
    N2090    N        0.29498    0.87162    0.90298    1.000
    N2091    N        0.32410    0.76986    0.93503    1.000
    N2092    N        0.30713    0.82522    0.97054    1.000
    Si2093   Si       0.33846    0.80965    0.94226    1.000
    Si2094   Si       0.33593    0.86800    0.91062    1.000
    N2095    N        0.34504    0.82583    0.90324    1.000
    N2096    N        0.30337    0.91292    0.98821    1.000
    Si2097   Si       0.32744    0.98174    0.94054    1.000
    N2098    N        0.28879    0.97924    0.96087    1.000
    N2099    N        0.31655    0.99866    0.90201    1.000
    N2100    N        0.34071    0.94219    0.93118    1.000
    N2101    N        0.38718    0.03958    0.08728    1.000
    Si2102   Si       0.35189    0.02698    0.00771    1.000
    N2103    N        0.35625    0.10509    0.10933    1.000
    Si2104   Si       0.35407    0.06181    0.10400    1.000
    N2105    N        0.36951    0.06562    0.01190    1.000
    Si2106   Si       0.34891    0.10397    0.00337    1.000
    N2107    N        0.36969    0.18046    0.04463    1.000
    Si2108   Si       0.37941    0.20832    0.01117    1.000
    N2109    N        0.35826    0.22427    0.10945    1.000
    N2110    N        0.39137    0.24689    0.03348    1.000
    N2111    N        0.39218    0.16381    0.11389    1.000
    Si2112   Si       0.39009    0.12418    0.13084    1.000
    N2113    N        0.35076    0.07829    0.21231    1.000
    N2114    N        0.38385    0.12529    0.17439    1.000
    Si2115   Si       0.39451    0.08955    0.21044    1.000
    N2116    N        0.34282    0.04990    0.14454    1.000
    Si2117   Si       0.38489    0.19944    0.13458    1.000
    Si2118   Si       0.37364    0.16098    0.19384    1.000
    N2119    N        0.35438    0.18982    0.16566    1.000
    Si2120   Si       0.38627    0.23660    0.24403    1.000
    N2121    N        0.37218    0.02287    0.29865    1.000
    Si2122   Si       0.39167    0.09918    0.28163    1.000
    Si2123   Si       0.39531    0.02905    0.26255    1.000
    N2124    N        0.39086    0.06201    0.34959    1.000
    Si2125   Si       0.39388    0.02062    0.33524    1.000
    N2126    N        0.34977    0.10339    0.28179    1.000
    Si2127   Si       0.35848    0.08440    0.36559    1.000
    N2128    N        0.39786    0.07101    0.25187    1.000
    N2129    N        0.37018    0.20146    0.26945    1.000
    N2130    N        0.37969    0.23138    0.33879    1.000
    Si2131   Si       0.39328    0.21636    0.30168    1.000
    N2132    N        0.38530    0.16938    0.36998    1.000
    Si2133   Si       0.36121    0.20671    0.36872    1.000
    N2134    N        0.37754    0.10429    0.39968    1.000
    Si2135   Si       0.38595    0.08910    0.43933    1.000
    N2136    N        0.34326    0.09424    0.45534    1.000
    Si2137   Si       0.35210    0.14247    0.38967    1.000
    N2138    N        0.37863    0.22878    0.48103    1.000
    N2139    N        0.35330    0.22716    0.40537    1.000
    N2140    N        0.35432    0.16275    0.43387    1.000
    Si2141   Si       0.36400    0.20598    0.44347    1.000
    Si2142   Si       0.37366    0.09394    0.59679    1.000
    N2143    N        0.37673    0.05656    0.57554    1.000
    Si2144   Si       0.35779    0.02788    0.60230    1.000
    N2145    N        0.35575    0.04689    0.51085    1.000
    Si2146   Si       0.39220    0.04847    0.53525    1.000
    N2147    N        0.36737    0.11797    0.51875    1.000
    N2148    N        0.38431    0.13439    0.58521    1.000
    N2149    N        0.37713    0.18826    0.54079    1.000
    Si2150   Si       0.35724    0.21967    0.51849    1.000
    Si2151   Si       0.36200    0.14813    0.55026    1.000
    N2152    N        0.39143    0.25636    0.59310    1.000
    N2153    N        0.34983    0.26086    0.53183    1.000
    N2154    N        0.36772    0.03999    0.64489    1.000
    Si2155   Si       0.37257    0.12345    0.69651    1.000
    N2156    N        0.39466    0.08679    0.69403    1.000
    N2157    N        0.35494    0.01575    0.74489    1.000
    Si2158   Si       0.40040    0.06433    0.65752    1.000
    N2159    N        0.39566    0.19290    0.62722    1.000
    N2160    N        0.35201    0.19697    0.69569    1.000
    Si2161   Si       0.39923    0.25628    0.73296    1.000
    N2162    N        0.37637    0.14318    0.65890    1.000
    Si2163   Si       0.35959    0.18390    0.65277    1.000
    N2164    N        0.38945    0.14434    0.73218    1.000
    Si2165   Si       0.36931    0.18376    0.73444    1.000
    Si2166   Si       0.40236    0.14755    0.62293    1.000
    Si2167   Si       0.37907    0.08876    0.80514    1.000
    N2168    N        0.35946    0.08390    0.76553    1.000
    N2169    N        0.35470    0.08833    0.83930    1.000
    Si2170   Si       0.38431    0.01552    0.82181    1.000
    N2171    N        0.39529    0.04879    0.79474    1.000
    Si2172   Si       0.38168    0.04803    0.75301    1.000
    N2173    N        0.39431    0.24588    0.85242    1.000
    N2174    N        0.40058    0.21272    0.74656    1.000
    Si2175   Si       0.35849    0.09827    0.88076    1.000
    Si2176   Si       0.38773    0.01580    0.94995    1.000
    N2177    N        0.38784    0.11846    0.98517    1.000
    N2178    N        0.38778    0.01411    0.90734    1.000
    N2179    N        0.40016    0.10785    0.89106    1.000
    Si2180   Si       0.36920    0.20694    0.93427    1.000
    N2181    N        0.35068    0.14296    0.88105    1.000
    N2182    N        0.34393    0.20848    0.89649    1.000
    Si2183   Si       0.36556    0.24731    0.88426    1.000
    N2184    N        0.35656    0.21439    0.97527    1.000
    N2185    N        0.39331    0.24183    0.92178    1.000
    Si2186   Si       0.39186    0.15117    0.88917    1.000
    N2187    N        0.39207    0.16909    0.93083    1.000
    N2188    N        0.37651    0.31965    0.02844    1.000
    Si2189   Si       0.37446    0.37483    0.08379    1.000
    Si2190   Si       0.37568    0.35772    0.00772    1.000
    Si2191   Si       0.35742    0.26541    0.10516    1.000
    N2192    N        0.39723    0.28538    0.09953    1.000
    Si2193   Si       0.40210    0.28650    0.01598    1.000
    N2194    N        0.37539    0.38613    0.04182    1.000
    N2195    N        0.36616    0.41277    0.10270    1.000
    N2196    N        0.37271    0.46654    0.03816    1.000
    Si2197   Si       0.35609    0.42572    0.03892    1.000
    Si2198   Si       0.35140    0.48726    0.00625    1.000
    N2199    N        0.37472    0.33609    0.15492    1.000
    Si2200   Si       0.35951    0.30430    0.23070    1.000
    N2201    N        0.39763    0.31266    0.21465    1.000
    Si2202   Si       0.39701    0.34981    0.19077    1.000
    N2203    N        0.35148    0.26292    0.23885    1.000
    N2204    N        0.38171    0.38275    0.21648    1.000
    N2205    N        0.36863    0.44957    0.23852    1.000
    Si2206   Si       0.34732    0.47350    0.15635    1.000
    Si2207   Si       0.39266    0.43060    0.13148    1.000
    N2208    N        0.37240    0.44054    0.16716    1.000
    N2209    N        0.37528    0.50744    0.14457    1.000
    Si2210   Si       0.38662    0.42726    0.20748    1.000
    N2211    N        0.38844    0.30080    0.32781    1.000
    N2212    N        0.35981    0.33208    0.26302    1.000
    Si2213   Si       0.38286    0.36925    0.26027    1.000
    Si2214   Si       0.35349    0.31624    0.34623    1.000
    N2215    N        0.36981    0.35323    0.36547    1.000
    N2216    N        0.34977    0.38933    0.28259    1.000
    N2217    N        0.37660    0.41760    0.34227    1.000
    N2218    N        0.37829    0.50513    0.32540    1.000
    Si2219   Si       0.34946    0.39125    0.36698    1.000
    Si2220   Si       0.34394    0.41950    0.31100    1.000
    Si2221   Si       0.38745    0.34708    0.45138    1.000
    Si2222   Si       0.36354    0.26960    0.40406    1.000
    Si2223   Si       0.39241    0.27593    0.48496    1.000
    N2224    N        0.36190    0.27903    0.44653    1.000
    N2225    N        0.39332    0.32118    0.48987    1.000
    N2226    N        0.34659    0.34420    0.43815    1.000
    N2227    N        0.39877    0.38729    0.46229    1.000
    Si2228   Si       0.37664    0.40498    0.49575    1.000
    N2229    N        0.38094    0.50760    0.42151    1.000
    N2230    N        0.37362    0.31607    0.55538    1.000
    Si2231   Si       0.38480    0.27424    0.55434    1.000
    Si2232   Si       0.39866    0.34002    0.52877    1.000
    N2233    N        0.38539    0.38005    0.53097    1.000
    Si2234   Si       0.35223    0.46670    0.52517    1.000
    Si2235   Si       0.36792    0.39809    0.56587    1.000
    N2236    N        0.36685    0.49802    0.55144    1.000
    N2237    N        0.39939    0.40954    0.59326    1.000
    N2238    N        0.38463    0.44616    0.50387    1.000
    N2239    N        0.40055    0.47921    0.60772    1.000
    Si2240   Si       0.37772    0.44065    0.61682    1.000
    Si2241   Si       0.37109    0.50839    0.59287    1.000
    N2242    N        0.35803    0.26155    0.71961    1.000
    Si2243   Si       0.36724    0.27032    0.62637    1.000
    Si2244   Si       0.38546    0.32892    0.67669    1.000
    N2245    N        0.39360    0.29038    0.65522    1.000
    N2246    N        0.39755    0.31864    0.71635    1.000
    N2247    N        0.39202    0.43614    0.65786    1.000
    N2248    N        0.36974    0.38968    0.71186    1.000
    Si2249   Si       0.39895    0.40053    0.68088    1.000
    N2250    N        0.39337    0.46612    0.72064    1.000
    N2251    N        0.36885    0.29916    0.82131    1.000
    Si2252   Si       0.37566    0.34147    0.82002    1.000
    N2253    N        0.39096    0.34891    0.77943    1.000
    N2254    N        0.39736    0.33968    0.85841    1.000
    N2255    N        0.34126    0.36637    0.83241    1.000
    Si2256   Si       0.39783    0.29181    0.85134    1.000
    Si2257   Si       0.37508    0.38150    0.75614    1.000
    N2258    N        0.36505    0.42869    0.82747    1.000
    Si2259   Si       0.35490    0.46374    0.85134    1.000
    N2260    N        0.37880    0.49958    0.84086    1.000
    N2261    N        0.40007    0.49927    0.77861    1.000
    Si2262   Si       0.37103    0.48991    0.74856    1.000
    N2263    N        0.39431    0.32647    0.93614    1.000
    N2264    N        0.34615    0.28300    0.96630    1.000
    Si2265   Si       0.38286    0.28348    0.94281    1.000
    Si2266   Si       0.37623    0.33216    0.89744    1.000
    N2267    N        0.37477    0.29040    0.89198    1.000
    N2268    N        0.36453    0.48126    0.96636    1.000
    Si2269   Si       0.39774    0.41851    0.97886    1.000
    Si2270   Si       0.38214    0.47229    0.92995    1.000
    N2271    N        0.35666    0.46441    0.89636    1.000
    N2272    N        0.35788    0.42037    0.99371    1.000
    N2273    N        0.36946    0.58255    0.06574    1.000
    N2274    N        0.35892    0.53225    0.01565    1.000
    Si2275   Si       0.35731    0.54174    0.05953    1.000
    Si2276   Si       0.35509    0.60270    0.10090    1.000
    N2277    N        0.39165    0.51975    0.07892    1.000
    Si2278   Si       0.39919    0.53999    0.99949    1.000
    N2279    N        0.36786    0.67155    0.03032    1.000
    N2280    N        0.38799    0.69305    0.08790    1.000
    Si2281   Si       0.35059    0.67689    0.07007    1.000
    Si2282   Si       0.34224    0.68503    0.99814    1.000
    N2283    N        0.38670    0.75769    0.05794    1.000
    Si2284   Si       0.36453    0.75707    0.01919    1.000
    Si2285   Si       0.36605    0.59398    0.22349    1.000
    N2286    N        0.37728    0.61094    0.13935    1.000
    Si2287   Si       0.36710    0.52558    0.18588    1.000
    N2288    N        0.35208    0.56597    0.19225    1.000
    N2289    N        0.37248    0.63308    0.20183    1.000
    Si2290   Si       0.34097    0.58978    0.15733    1.000
    N2291    N        0.38034    0.75623    0.17160    1.000
    Si2292   Si       0.34756    0.66586    0.21578    1.000
    Si2293   Si       0.39890    0.63735    0.16519    1.000
    Si2294   Si       0.38962    0.71391    0.18064    1.000
    N2295    N        0.34969    0.70055    0.18887    1.000
    N2296    N        0.40134    0.67819    0.15739    1.000
    N2297    N        0.37285    0.57041    0.30659    1.000
    Si2298   Si       0.38184    0.53082    0.28935    1.000
    N2299    N        0.35666    0.51536    0.26084    1.000
    Si2300   Si       0.39976    0.57017    0.34192    1.000
    Si2301   Si       0.34227    0.59895    0.29532    1.000
    N2302    N        0.36917    0.63328    0.36911    1.000
    Si2303   Si       0.38896    0.63972    0.33173    1.000
    N2304    N        0.35760    0.63980    0.30326    1.000
    Si2305   Si       0.36388    0.74824    0.32461    1.000
    N2306    N        0.36537    0.68227    0.25235    1.000
    Si2307   Si       0.34321    0.67889    0.29054    1.000
    N2308    N        0.38125    0.56587    0.38050    1.000
    Si2309   Si       0.36739    0.55126    0.41823    1.000
    N2310    N        0.37006    0.59121    0.43885    1.000
    Si2311   Si       0.38753    0.60737    0.39791    1.000
    Si2312   Si       0.37420    0.67684    0.49186    1.000
    N2313    N        0.35218    0.63979    0.49062    1.000
    N2314    N        0.35331    0.75660    0.42810    1.000
    N2315    N        0.36013    0.70031    0.38659    1.000
    N2316    N        0.38736    0.69430    0.45433    1.000
    Si2317   Si       0.35908    0.71461    0.42819    1.000
    Si2318   Si       0.33966    0.66042    0.38207    1.000
    Si2319   Si       0.36652    0.54299    0.54319    1.000
    N2320    N        0.36364    0.61361    0.55058    1.000
    N2321    N        0.37523    0.55188    0.58443    1.000
    Si2322   Si       0.36650    0.59365    0.59272    1.000
    N2323    N        0.39287    0.56238    0.51636    1.000
    Si2324   Si       0.35179    0.72844    0.54564    1.000
    N2325    N        0.38487    0.71614    0.57154    1.000
    Si2326   Si       0.36532    0.72048    0.61181    1.000
    N2327    N        0.34520    0.70328    0.51193    1.000
    N2328    N        0.35540    0.76351    0.60409    1.000
    N2329    N        0.39674    0.60497    0.62298    1.000
    Si2330   Si       0.39496    0.53941    0.70479    1.000
    N2331    N        0.38282    0.57909    0.69587    1.000
    N2332    N        0.36371    0.53179    0.73386    1.000
    Si2333   Si       0.40068    0.60901    0.66768    1.000
    Si2334   Si       0.34188    0.51445    0.66399    1.000
    N2335    N        0.38395    0.51193    0.67116    1.000
    Si2336   Si       0.39328    0.66798    0.63493    1.000
    N2337    N        0.35070    0.67801    0.61935    1.000
    Si2338   Si       0.34909    0.64766    0.69889    1.000
    N2339    N        0.36635    0.64092    0.73814    1.000
    N2340    N        0.38327    0.64765    0.67194    1.000
    N2341    N        0.37417    0.61253    0.85173    1.000
    N2342    N        0.37759    0.56094    0.80607    1.000
    Si2343   Si       0.35248    0.53444    0.83296    1.000
    Si2344   Si       0.35654    0.55096    0.77135    1.000
    Si2345   Si       0.36321    0.68871    0.79189    1.000
    N2346    N        0.35992    0.70867    0.83138    1.000
    Si2347   Si       0.36990    0.74993    0.84087    1.000
    Si2348   Si       0.37236    0.75389    0.76101    1.000
    N2349    N        0.34853    0.71635    0.76130    1.000
    N2350    N        0.34461    0.65152    0.79879    1.000
    N2351    N        0.38078    0.55589    0.96104    1.000
    N2352    N        0.35173    0.60700    0.91894    1.000
    Si2353   Si       0.37367    0.60052    0.95538    1.000
    Si2354   Si       0.36836    0.58458    0.88520    1.000
    N2355    N        0.35866    0.69216    0.95716    1.000
    Si2356   Si       0.39735    0.71033    0.96293    1.000
    N2357    N        0.39020    0.75010    0.98392    1.000
    Si2358   Si       0.37547    0.80162    0.07688    1.000
    Si2359   Si       0.38818    0.87439    0.09526    1.000
    N2360    N        0.38956    0.78961    0.11637    1.000
    N2361    N        0.34693    0.87212    0.01169    1.000
    N2362    N        0.34552    0.79797    0.02982    1.000
    N2363    N        0.39822    0.83993    0.07331    1.000
    Si2364   Si       0.37010    0.00131    0.07470    1.000
    Si2365   Si       0.38161    0.93488    0.10118    1.000
    Si2366   Si       0.38028    0.89954    0.02225    1.000
    N2367    N        0.37840    0.90829    0.06560    1.000
    N2368    N        0.37252    0.99623    0.03115    1.000
    Si2369   Si       0.39479    0.96928    0.00462    1.000
    N2370    N        0.36845    0.93450    0.99762    1.000
    Si2371   Si       0.36780    0.85451    0.22279    1.000
    N2372    N        0.36019    0.85974    0.12795    1.000
    Si2373   Si       0.37856    0.78541    0.20321    1.000
    N2374    N        0.38380    0.82669    0.19128    1.000
    Si2375   Si       0.35471    0.77384    0.13939    1.000
    Si2376   Si       0.38928    0.85819    0.16082    1.000
    N2377    N        0.35698    0.94586    0.20856    1.000
    Si2378   Si       0.34828    0.98518    0.22139    1.000
    Si2379   Si       0.38844    0.91850    0.22522    1.000
    N2380    N        0.39336    0.00209    0.15443    1.000
    Si2381   Si       0.34870    0.91888    0.17492    1.000
    Si2382   Si       0.35149    0.00628    0.14541    1.000
    N2383    N        0.37733    0.88915    0.19035    1.000
    N2384    N        0.35485    0.93453    0.13559    1.000
    N2385    N        0.38557    0.00586    0.22853    1.000
    N2386    N        0.37861    0.85383    0.32688    1.000
    Si2387   Si       0.38748    0.86042    0.28495    1.000
    N2388    N        0.37026    0.82752    0.25940    1.000
    N2389    N        0.36944    0.77418    0.29108    1.000
    N2390    N        0.34225    0.77449    0.35417    1.000
    N2391    N        0.37499    0.88955    0.25524    1.000
    N2392    N        0.38274    0.98304    0.35227    1.000
    N2393    N        0.39480    0.84020    0.44575    1.000
    Si2394   Si       0.36016    0.85710    0.42671    1.000
    Si2395   Si       0.35312    0.78831    0.39519    1.000
    Si2396   Si       0.39463    0.83509    0.48656    1.000
    N2397    N        0.39970    0.79264    0.39419    1.000
    N2398    N        0.34915    0.83400    0.39061    1.000
    N2399    N        0.38146    0.98394    0.42661    1.000
    N2400    N        0.38442    0.92799    0.49161    1.000
    N2401    N        0.36735    0.89804    0.41665    1.000
    Si2402   Si       0.34428    0.94388    0.49659    1.000
    Si2403   Si       0.38668    0.79383    0.60515    1.000
    Si2404   Si       0.37770    0.84543    0.54631    1.000
    N2405    N        0.36028    0.82750    0.51004    1.000
    N2406    N        0.35738    0.88182    0.55491    1.000
    N2407    N        0.39733    0.80942    0.56523    1.000
    N2408    N        0.35557    0.76833    0.53049    1.000
    Si2409   Si       0.39650    0.78284    0.53062    1.000
    N2410    N        0.35890    0.98943    0.58138    1.000
    Si2411   Si       0.36517    0.91412    0.58326    1.000
    Si2412   Si       0.39729    0.97591    0.56464    1.000
    N2413    N        0.40260    0.92995    0.56381    1.000
    N2414    N        0.37076    0.90294    0.62438    1.000
    N2415    N        0.34419    0.84310    0.70953    1.000
    N2416    N        0.36854    0.82952    0.62402    1.000
    Si2417   Si       0.37292    0.81973    0.73219    1.000
    Si2418   Si       0.39383    0.86367    0.62788    1.000
    N2419    N        0.35045    0.78383    0.73993    1.000
    Si2420   Si       0.40107    0.92741    0.71561    1.000
    N2421    N        0.38801    0.95948    0.65986    1.000
    Si2422   Si       0.35785    0.92867    0.65749    1.000
    N2423    N        0.35919    0.91381    0.69981    1.000
    N2424    N        0.36911    0.83588    0.83794    1.000
    N2425    N        0.37648    0.77172    0.80251    1.000
    Si2426   Si       0.37785    0.87808    0.84876    1.000
    N2427    N        0.39205    0.83259    0.76905    1.000
    Si2428   Si       0.39386    0.81268    0.80952    1.000
    Si2429   Si       0.36875    0.97844    0.75809    1.000
    Si2430   Si       0.36352    0.91234    0.77537    1.000
    N2431    N        0.37614    0.90808    0.81575    1.000
    N2432    N        0.38015    0.97882    0.79972    1.000
    Si2433   Si       0.38785    0.94806    0.83117    1.000
    N2434    N        0.36631    0.95886    0.86715    1.000
    N2435    N        0.39984    0.90154    0.75330    1.000
    N2436    N        0.34127    0.94814    0.76009    1.000
    N2437    N        0.36928    0.81946    0.97130    1.000
    Si2438   Si       0.38986    0.85923    0.96613    1.000
    N2439    N        0.35693    0.88096    0.94721    1.000
    N2440    N        0.35583    0.89172    0.88202    1.000
    Si2441   Si       0.34141    0.91556    0.96724    1.000
    Si2442   Si       0.36820    0.92895    0.90075    1.000
    N2443    N        0.34758    0.01103    0.96826    1.000
    Si2444   Si       0.42985    0.04274    0.07975    1.000
    Si2445   Si       0.44663    0.11237    0.08716    1.000
    N2446    N        0.45262    0.07610    0.06562    1.000
    N2447    N        0.42335    0.09918    0.12215    1.000
    N2448    N        0.44855    0.07756    0.99952    1.000
    N2449    N        0.42927    0.14146    0.06322    1.000
    N2450    N        0.42290    0.21292    0.08265    1.000
    Si2451   Si       0.44871    0.22248    0.11682    1.000
    Si2452   Si       0.40331    0.17585    0.07299    1.000
    N2453    N        0.41373    0.18864    0.99488    1.000
    N2454    N        0.44473    0.03262    0.12252    1.000
    N2455    N        0.41177    0.05873    0.18140    1.000
    N2456    N        0.43187    0.11578    0.21636    1.000
    Si2457   Si       0.43670    0.06843    0.14828    1.000
    Si2458   Si       0.40867    0.01727    0.19213    1.000
    N2459    N        0.40934    0.17960    0.21267    1.000
    N2460    N        0.40892    0.24487    0.20828    1.000
    Si2461   Si       0.43067    0.15237    0.24185    1.000
    Si2462   Si       0.43118    0.21184    0.19227    1.000
    N2463    N        0.42088    0.21454    0.15018    1.000
    Si2464   Si       0.43537    0.06391    0.34656    1.000
    N2465    N        0.43625    0.01889    0.33939    1.000
    N2466    N        0.43450    0.01550    0.26898    1.000
    N2467    N        0.44844    0.07468    0.30619    1.000
    Si2468   Si       0.45468    0.11809    0.30384    1.000
    N2469    N        0.42029    0.13144    0.27964    1.000
    N2470    N        0.44250    0.13392    0.34380    1.000
    N2471    N        0.42916    0.19384    0.30819    1.000
    Si2472   Si       0.42358    0.17126    0.34860    1.000
    N2473    N        0.40605    0.25256    0.28016    1.000
    N2474    N        0.44581    0.25581    0.33333    1.000
    Si2475   Si       0.43967    0.06611    0.47502    1.000
    N2476    N        0.41570    0.11129    0.46323    1.000
    N2477    N        0.40834    0.04828    0.44800    1.000
    Si2478   Si       0.45519    0.12605    0.45293    1.000
    N2479    N        0.44669    0.19997    0.37410    1.000
    Si2480   Si       0.44616    0.18602    0.41438    1.000
    Si2481   Si       0.42540    0.22204    0.46581    1.000
    N2482    N        0.40906    0.19546    0.43601    1.000
    N2483    N        0.45845    0.14405    0.41220    1.000
    N2484    N        0.42418    0.07690    0.51863    1.000
    Si2485   Si       0.41049    0.11628    0.50847    1.000
    Si2486   Si       0.45366    0.10134    0.61760    1.000
    N2487    N        0.43221    0.14875    0.52569    1.000
    N2488    N        0.43904    0.20453    0.57389    1.000
    Si2489   Si       0.41944    0.18865    0.53735    1.000
    Si2490   Si       0.41665    0.22276    0.60705    1.000
    N2491    N        0.43974    0.20644    0.50458    1.000
    N2492    N        0.41073    0.09000    0.62370    1.000
    Si2493   Si       0.43725    0.07107    0.71174    1.000
    N2494    N        0.43474    0.04566    0.67297    1.000
    N2495    N        0.42102    0.03853    0.73714    1.000
    N2496    N        0.42707    0.25091    0.69851    1.000
    Si2497   Si       0.45611    0.22146    0.69996    1.000
    N2498    N        0.45715    0.18090    0.68262    1.000
    N2499    N        0.44390    0.24134    0.63443    1.000
    N2500    N        0.44575    0.14212    0.62838    1.000
    Si2501   Si       0.43686    0.04976    0.77819    1.000
    N2502    N        0.41122    0.11824    0.80470    1.000
    Si2503   Si       0.45042    0.11171    0.82372    1.000
    N2504    N        0.45502    0.06827    0.81442    1.000
    Si2505   Si       0.41938    0.12989    0.76152    1.000
    N2506    N        0.46137    0.11826    0.86436    1.000
    N2507    N        0.44349    0.09445    0.74939    1.000
    N2508    N        0.40750    0.17831    0.86073    1.000
    N2509    N        0.44715    0.16142    0.77003    1.000
    N2510    N        0.43819    0.22373    0.80712    1.000
    Si2511   Si       0.42505    0.21561    0.84786    1.000
    Si2512   Si       0.43801    0.20351    0.76728    1.000
    Si2513   Si       0.45770    0.06355    0.95816    1.000
    N2514    N        0.44669    0.05139    0.87986    1.000
    Si2515   Si       0.44055    0.09288    0.89143    1.000
    N2516    N        0.41576    0.04767    0.96040    1.000
    Si2517   Si       0.40569    0.07811    0.99077    1.000
    Si2518   Si       0.42609    0.01320    0.88793    1.000
    N2519    N        0.46166    0.09414    0.93025    1.000
    Si2520   Si       0.45369    0.19148    0.98107    1.000
    N2521    N        0.45318    0.22329    0.88066    1.000
    Si2522   Si       0.43862    0.24179    0.91836    1.000
    N2523    N        0.45433    0.15040    0.96656    1.000
    Si2524   Si       0.40769    0.15268    0.96797    1.000
    N2525    N        0.45940    0.22009    0.94881    1.000
    N2526    N        0.43924    0.28536    0.03872    1.000
    Si2527   Si       0.44385    0.37776    0.10949    1.000
    N2528    N        0.40853    0.35465    0.09790    1.000
    Si2529   Si       0.42097    0.25792    0.07153    1.000
    N2530    N        0.45959    0.25983    0.09737    1.000
    Si2531   Si       0.40792    0.50564    0.11750    1.000
    N2532    N        0.42029    0.50372    0.00597    1.000
    N2533    N        0.44305    0.47047    0.05519    1.000
    Si2534   Si       0.45183    0.47223    0.01264    1.000
    N2535    N        0.41473    0.46269    0.11307    1.000
    Si2536   Si       0.45197    0.45028    0.09239    1.000
    Si2537   Si       0.40650    0.49175    0.05000    1.000
    Si2538   Si       0.40570    0.31923    0.12555    1.000
    Si2539   Si       0.42600    0.28394    0.19682    1.000
    N2540    N        0.43446    0.29866    0.15549    1.000
    N2541    N        0.43908    0.35924    0.19242    1.000
    Si2542   Si       0.44908    0.39948    0.17983    1.000
    N2543    N        0.42624    0.40315    0.14306    1.000
    Si2544   Si       0.46023    0.44188    0.23756    1.000
    N2545    N        0.43181    0.42872    0.20838    1.000
    N2546    N        0.43624    0.34263    0.35178    1.000
    N2547    N        0.41691    0.36377    0.28735    1.000
    Si2548   Si       0.42025    0.32667    0.31310    1.000
    N2549    N        0.45114    0.30659    0.29161    1.000
    Si2550   Si       0.44584    0.26375    0.29190    1.000
    Si2551   Si       0.40398    0.26504    0.34726    1.000
    Si2552   Si       0.45246    0.38510    0.30168    1.000
    N2553    N        0.44342    0.48054    0.31126    1.000
    Si2554   Si       0.41697    0.49755    0.34122    1.000
    Si2555   Si       0.41656    0.42626    0.36019    1.000
    N2556    N        0.45396    0.41565    0.33447    1.000
    N2557    N        0.45602    0.41873    0.27342    1.000
    Si2558   Si       0.42883    0.29009    0.42052    1.000
    N2559    N        0.41380    0.33121    0.42050    1.000
    Si2560   Si       0.40950    0.35565    0.38406    1.000
    N2561    N        0.43127    0.26510    0.45995    1.000
    N2562    N        0.40473    0.27056    0.39244    1.000
    Si2563   Si       0.42781    0.41062    0.43633    1.000
    N2564    N        0.45110    0.50823    0.41282    1.000
    N2565    N        0.41846    0.39902    0.39413    1.000
    N2566    N        0.41164    0.46814    0.37195    1.000
    N2567    N        0.41913    0.45304    0.44545    1.000
    Si2568   Si       0.42083    0.46354    0.48907    1.000
    Si2569   Si       0.41518    0.48351    0.41460    1.000
    N2570    N        0.44133    0.33602    0.54019    1.000
    N2571    N        0.41657    0.27409    0.52372    1.000
    Si2572   Si       0.45507    0.29695    0.52346    1.000
    Si2573   Si       0.44302    0.47835    0.60201    1.000
    Si2574   Si       0.44168    0.40428    0.60186    1.000
    N2575    N        0.45095    0.47653    0.56044    1.000
    N2576    N        0.45453    0.43879    0.50495    1.000
    N2577    N        0.43069    0.50421    0.50143    1.000
    N2578    N        0.45837    0.40103    0.56228    1.000
    N2579    N        0.45613    0.43902    0.62022    1.000
    N2580    N        0.41080    0.36252    0.66266    1.000
    Si2581   Si       0.43084    0.27281    0.66187    1.000
    Si2582   Si       0.45268    0.34942    0.65543    1.000
    N2583    N        0.46093    0.30605    0.65595    1.000
    Si2584   Si       0.40262    0.47321    0.67870    1.000
    N2585    N        0.43516    0.41172    0.70616    1.000
    Si2586   Si       0.41846    0.43672    0.73940    1.000
    N2587    N        0.44559    0.48253    0.67938    1.000
    N2588    N        0.43605    0.29580    0.82814    1.000
    N2589    N        0.42118    0.27829    0.76311    1.000
    Si2590   Si       0.41670    0.32125    0.75440    1.000
    Si2591   Si       0.44525    0.26600    0.79619    1.000
    Si2592   Si       0.43466    0.36476    0.86608    1.000
    N2593    N        0.45869    0.33460    0.74683    1.000
    N2594    N        0.43044    0.39814    0.83901    1.000
    N2595    N        0.42794    0.45837    0.82283    1.000
    N2596    N        0.45268    0.45793    0.75784    1.000
    Si2597   Si       0.41903    0.50026    0.82194    1.000
    Si2598   Si       0.44097    0.50091    0.75935    1.000
    Si2599   Si       0.40545    0.42373    0.81358    1.000
    N2600    N        0.40071    0.41406    0.77154    1.000
    N2601    N        0.45522    0.28299    0.91870    1.000
    N2602    N        0.42759    0.37547    0.90890    1.000
    N2603    N        0.41310    0.27974    0.97556    1.000
    Si2604   Si       0.42610    0.35564    0.94662    1.000
    Si2605   Si       0.45199    0.29315    0.96080    1.000
    N2606    N        0.40670    0.37567    0.97907    1.000
    Si2607   Si       0.44814    0.49216    0.89465    1.000
    N2608    N        0.44715    0.44889    0.88546    1.000
    N2609    N        0.41236    0.50144    0.91713    1.000
    N2610    N        0.40345    0.43385    0.93707    1.000
    Si2611   Si       0.43711    0.41809    0.91414    1.000
    N2612    N        0.43205    0.43413    0.99932    1.000
    N2613    N        0.43731    0.58574    0.08680    1.000
    N2614    N        0.42132    0.57272    0.01781    1.000
    Si2615   Si       0.40706    0.59367    0.05305    1.000
    Si2616   Si       0.45232    0.62778    0.07913    1.000
    N2617    N        0.42121    0.63487    0.04868    1.000
    N2618    N        0.43524    0.72593    0.11190    1.000
    N2619    N        0.43452    0.70774    0.04048    1.000
    Si2620   Si       0.41100    0.67250    0.02687    1.000
    Si2621   Si       0.41322    0.72638    0.07240    1.000
    N2622    N        0.44777    0.64943    0.11561    1.000
    Si2623   Si       0.42020    0.68625    0.11770    1.000
    N2624    N        0.44909    0.52331    0.12406    1.000
    Si2625   Si       0.43481    0.61620    0.22041    1.000
    Si2626   Si       0.42757    0.54585    0.23007    1.000
    N2627    N        0.43796    0.61996    0.17728    1.000
    N2628    N        0.40829    0.58497    0.23139    1.000
    N2629    N        0.40659    0.52010    0.20265    1.000
    N2630    N        0.41948    0.70918    0.21232    1.000
    N2631    N        0.43070    0.53812    0.34367    1.000
    N2632    N        0.41883    0.60895    0.33394    1.000
    N2633    N        0.42357    0.53365    0.27253    1.000
    Si2634   Si       0.45767    0.50956    0.28234    1.000
    N2635    N        0.40980    0.67612    0.33448    1.000
    N2636    N        0.42965    0.71123    0.27766    1.000
    Si2637   Si       0.44400    0.68846    0.31213    1.000
    Si2638   Si       0.43589    0.74903    0.25317    1.000
    Si2639   Si       0.40714    0.68811    0.24847    1.000
    Si2640   Si       0.39942    0.70188    0.36894    1.000
    N2641    N        0.40093    0.74082    0.35000    1.000
    N2642    N        0.42912    0.65061    0.24661    1.000
    Si2643   Si       0.41063    0.60124    0.45569    1.000
    N2644    N        0.42949    0.56249    0.45569    1.000
    N2645    N        0.42395    0.61985    0.41906    1.000
    N2646    N        0.41887    0.62048    0.49315    1.000
    Si2647   Si       0.42802    0.54686    0.49537    1.000
    Si2648   Si       0.46038    0.54637    0.43011    1.000
    Si2649   Si       0.42956    0.70009    0.44361    1.000
    N2650    N        0.42849    0.69287    0.40050    1.000
    N2651    N        0.43868    0.74320    0.45215    1.000
    N2652    N        0.45959    0.67504    0.46430    1.000
    N2653    N        0.43261    0.60256    0.55954    1.000
    Si2654   Si       0.43368    0.61362    0.60237    1.000
    Si2655   Si       0.40125    0.60289    0.52876    1.000
    Si2656   Si       0.41938    0.70950    0.54524    1.000
    N2657    N        0.41100    0.67878    0.51565    1.000
    N2658    N        0.42067    0.74662    0.52503    1.000
    N2659    N        0.43245    0.65881    0.61017    1.000
    Si2660   Si       0.44561    0.65267    0.50153    1.000
    N2661    N        0.43125    0.52973    0.72545    1.000
    N2662    N        0.44281    0.61498    0.67529    1.000
    N2663    N        0.45127    0.68957    0.68371    1.000
    Si2664   Si       0.45708    0.64815    0.69931    1.000
    N2665    N        0.39962    0.71285    0.63969    1.000
    Si2666   Si       0.43949    0.72022    0.65691    1.000
    N2667    N        0.44103    0.63955    0.73846    1.000
    N2668    N        0.44146    0.75789    0.67654    1.000
    N2669    N        0.41187    0.74701    0.74230    1.000
    N2670    N        0.43912    0.58134    0.83658    1.000
    N2671    N        0.41113    0.62225    0.78939    1.000
    N2672    N        0.45504    0.52053    0.79668    1.000
    N2673    N        0.43945    0.51684    0.85905    1.000
    Si2674   Si       0.45359    0.61993    0.77683    1.000
    Si2675   Si       0.39990    0.59523    0.82108    1.000
    Si2676   Si       0.43410    0.71780    0.76994    1.000
    N2677    N        0.40810    0.74929    0.85998    1.000
    N2678    N        0.40511    0.68836    0.77870    1.000
    N2679    N        0.45644    0.74206    0.79802    1.000
    Si2680   Si       0.40349    0.64894    0.75842    1.000
    Si2681   Si       0.43832    0.55988    0.87264    1.000
    N2682    N        0.44701    0.55508    0.95682    1.000
    Si2683   Si       0.41100    0.54192    0.93186    1.000
    Si2684   Si       0.44168    0.58851    0.98422    1.000
    N2685    N        0.41325    0.61501    0.96324    1.000
    N2686    N        0.40549    0.56662    0.89766    1.000
    Si2687   Si       0.42386    0.75449    0.89957    1.000
    N2688    N        0.42167    0.68027    0.98393    1.000
    Si2689   Si       0.45965    0.70536    0.94567    1.000
    Si2690   Si       0.44286    0.64602    0.96796    1.000
    N2691    N        0.42383    0.72410    0.92966    1.000
    Si2692   Si       0.44181    0.83961    0.06908    1.000
    N2693    N        0.45396    0.80415    0.09158    1.000
    Si2694   Si       0.45479    0.87081    0.00132    1.000
    N2695    N        0.41186    0.88017    0.99815    1.000
    N2696    N        0.45577    0.83593    0.02752    1.000
    N2697    N        0.40095    0.97378    0.09061    1.000
    N2698    N        0.43100    0.95280    0.02255    1.000
    Si2699   Si       0.43559    0.96704    0.06293    1.000
    N2700    N        0.40980    0.90594    0.11780    1.000
    N2701    N        0.44874    0.00913    0.06022    1.000
    N2702    N        0.45964    0.93735    0.08322    1.000
    Si2703   Si       0.42861    0.80401    0.12606    1.000
    N2704    N        0.45249    0.78191    0.15470    1.000
    N2705    N        0.42627    0.84589    0.14114    1.000
    N2706    N        0.40692    0.77867    0.23577    1.000
    Si2707   Si       0.44773    0.92760    0.12263    1.000
    N2708    N        0.44769    0.96503    0.14391    1.000
    N2709    N        0.44415    0.99725    0.20350    1.000
    Si2710   Si       0.42204    0.99364    0.12594    1.000
    Si2711   Si       0.44060    0.98166    0.24332    1.000
    N2712    N        0.43394    0.81187    0.34028    1.000
    Si2713   Si       0.41690    0.85154    0.34707    1.000
    N2714    N        0.42538    0.84165    0.27735    1.000
    N2715    N        0.44142    0.77794    0.28683    1.000
    Si2716   Si       0.42449    0.77502    0.36199    1.000
    Si2717   Si       0.40339    0.80095    0.27583    1.000
    Si2718   Si       0.45894    0.86351    0.29429    1.000
    N2719    N        0.43918    0.88192    0.32799    1.000
    Si2720   Si       0.44746    0.91974    0.34750    1.000
    Si2721   Si       0.45269    0.93080    0.27624    1.000
    N2722    N        0.44783    0.95071    0.31526    1.000
    N2723    N        0.42036    0.94203    0.24622    1.000
    Si2724   Si       0.42174    0.82462    0.41586    1.000
    N2725    N        0.42005    0.86097    0.38953    1.000
    Si2726   Si       0.44260    0.76217    0.49017    1.000
    N2727    N        0.45965    0.80838    0.42560    1.000
    Si2728   Si       0.41133    0.90023    0.41016    1.000
    N2729    N        0.44032    0.99199    0.40514    1.000
    N2730    N        0.42996    0.97866    0.47394    1.000
    Si2731   Si       0.41772    0.00559    0.44131    1.000
    N2732    N        0.41914    0.92998    0.37948    1.000
    Si2733   Si       0.42195    0.93745    0.47526    1.000
    N2734    N        0.43761    0.91071    0.44362    1.000
    Si2735   Si       0.40352    0.97019    0.38938    1.000
    Si2736   Si       0.43508    0.82666    0.58247    1.000
    N2737    N        0.42206    0.86724    0.59268    1.000
    N2738    N        0.41219    0.86325    0.52109    1.000
    Si2739   Si       0.44953    0.83741    0.51422    1.000
    N2740    N        0.43083    0.79810    0.61638    1.000
    N2741    N        0.42445    0.80258    0.49888    1.000
    N2742    N        0.44392    0.92197    0.50896    1.000
    Si2743   Si       0.44504    0.99890    0.50923    1.000
    N2744    N        0.42529    0.98244    0.59776    1.000
    Si2745   Si       0.43666    0.90862    0.58725    1.000
    Si2746   Si       0.40583    0.90471    0.52796    1.000
    N2747    N        0.40870    0.00865    0.53455    1.000
    N2748    N        0.41680    0.86824    0.66609    1.000
    Si2749   Si       0.43092    0.77363    0.71482    1.000
    Si2750   Si       0.43186    0.83966    0.69431    1.000
    N2751    N        0.44925    0.85382    0.73372    1.000
    N2752    N        0.40543    0.80772    0.70542    1.000
    Si2753   Si       0.45660    0.79057    0.64994    1.000
    N2754    N        0.44031    0.92571    0.69733    1.000
    N2755    N        0.45275    0.98476    0.66430    1.000
    Si2756   Si       0.42591    0.96316    0.63758    1.000
    N2757    N        0.44154    0.92392    0.62842    1.000
    Si2758   Si       0.44667    0.89779    0.66506    1.000
    Si2759   Si       0.43568    0.99655    0.74050    1.000
    N2760    N        0.40369    0.96687    0.73303    1.000
    N2761    N        0.43486    0.80423    0.82175    1.000
    N2762    N        0.43941    0.86734    0.80356    1.000
    Si2763   Si       0.41951    0.86565    0.76439    1.000
    Si2764   Si       0.44361    0.76334    0.83377    1.000
    N2765    N        0.41902    0.88136    0.86399    1.000
    Si2766   Si       0.44929    0.98122    0.82019    1.000
    N2767    N        0.42953    0.94208    0.83470    1.000
    Si2768   Si       0.43946    0.90144    0.83177    1.000
    N2769    N        0.41491    0.00448    0.84617    1.000
    N2770    N        0.44955    0.00581    0.78296    1.000
    N2771    N        0.43911    0.79880    0.97482    1.000
    Si2772   Si       0.43997    0.81814    0.93413    1.000
    N2773    N        0.42158    0.85754    0.93566    1.000
    N2774    N        0.41005    0.78797    0.92158    1.000
    Si2775   Si       0.39937    0.78725    0.96416    1.000
    Si2776   Si       0.43003    0.88800    0.90639    1.000
    N2777    N        0.40909    0.98083    0.96375    1.000
    Si2778   Si       0.43250    0.95802    0.93484    1.000
    N2779    N        0.40913    0.92570    0.91558    1.000
    N2780    N        0.45190    0.98414    0.90654    1.000
    N2781    N        0.46227    0.93581    0.95836    1.000
    N2782    N        0.48596    0.12589    0.10135    1.000
    Si2783   Si       0.47862    0.07649    0.03306    1.000
    N2784    N        0.50667    0.04105    0.03260    1.000
    N2785    N        0.50407    0.11353    0.03068    1.000
    N2786    N        0.51184    0.06117    0.11532    1.000
    Si2787   Si       0.51500    0.13093    0.07075    1.000
    N2788    N        0.51761    0.17453    0.06699    1.000
    N2789    N        0.49014    0.20065    0.00149    1.000
    Si2790   Si       0.49025    0.02489    0.12358    1.000
    N2791    N        0.50063    0.11746    0.22301    1.000
    N2792    N        0.47111    0.09320    0.16423    1.000
    Si2793   Si       0.50178    0.10103    0.13594    1.000
    Si2794   Si       0.46941    0.12429    0.19293    1.000
    N2795    N        0.49711    0.01519    0.16500    1.000
    Si2796   Si       0.48308    0.25378    0.22905    1.000
    N2797    N        0.48781    0.20702    0.12850    1.000
    N2798    N        0.47446    0.22355    0.19841    1.000
    Si2799   Si       0.49702    0.20071    0.16920    1.000
    N2800    N        0.47941    0.16225    0.17486    1.000
    N2801    N        0.49884    0.05556    0.25807    1.000
    Si2802   Si       0.46785    0.04139    0.28487    1.000
    N2803    N        0.49618    0.12458    0.28881    1.000
    N2804    N        0.49513    0.01341    0.30502    1.000
    N2805    N        0.50847    0.13804    0.35992    1.000
    Si2806   Si       0.50320    0.15094    0.25331    1.000
    N2807    N        0.49320    0.20066    0.32121    1.000
    Si2808   Si       0.47292    0.22680    0.35231    1.000
    N2809    N        0.47066    0.23848    0.26787    1.000
    N2810    N        0.46591    0.17174    0.25494    1.000
    Si2811   Si       0.46661    0.20151    0.28801    1.000
    Si2812   Si       0.47037    0.12307    0.37565    1.000
    Si2813   Si       0.51169    0.08458    0.47996    1.000
    Si2814   Si       0.49980    0.01923    0.46620    1.000
    N2815    N        0.49829    0.02465    0.42086    1.000
    N2816    N        0.47569    0.08444    0.45215    1.000
    Si2817   Si       0.48602    0.06702    0.41411    1.000
    N2818    N        0.46349    0.03085    0.48622    1.000
    N2819    N        0.46078    0.07859    0.37935    1.000
    N2820    N        0.50758    0.24559    0.37303    1.000
    N2821    N        0.46618    0.21283    0.44263    1.000
    N2822    N        0.48256    0.14782    0.47954    1.000
    N2823    N        0.51620    0.25258    0.45523    1.000
    Si2824   Si       0.50506    0.21124    0.45960    1.000
    N2825    N        0.49685    0.09247    0.52028    1.000
    Si2826   Si       0.49668    0.05193    0.59729    1.000
    Si2827   Si       0.50617    0.12241    0.55138    1.000
    N2828    N        0.47400    0.10175    0.57748    1.000
    N2829    N        0.47006    0.03979    0.56390    1.000
    Si2830   Si       0.46319    0.07521    0.54291    1.000
    N2831    N        0.50860    0.22218    0.56570    1.000
    N2832    N        0.49295    0.16406    0.55066    1.000
    Si2833   Si       0.48008    0.19481    0.58163    1.000
    Si2834   Si       0.47123    0.17331    0.51224    1.000
    N2835    N        0.50769    0.20253    0.50165    1.000
    N2836    N        0.48236    0.07008    0.63452    1.000
    N2837    N        0.48216    0.07957    0.70307    1.000
    Si2838   Si       0.50633    0.08709    0.66790    1.000
    Si2839   Si       0.46721    0.02565    0.65452    1.000
    N2840    N        0.50833    0.01883    0.67305    1.000
    Si2841   Si       0.48818    0.09277    0.74313    1.000
    N2842    N        0.51000    0.13239    0.65861    1.000
    N2843    N        0.51055    0.13163    0.74509    1.000
    N2844    N        0.49222    0.19305    0.62365    1.000
    Si2845   Si       0.51236    0.21123    0.74373    1.000
    Si2846   Si       0.47656    0.16195    0.65049    1.000
    Si2847   Si       0.48579    0.23251    0.63893    1.000
    N2848    N        0.48979    0.24229    0.68217    1.000
    N2849    N        0.46925    0.21656    0.74112    1.000
    N2850    N        0.48852    0.12218    0.80703    1.000
    Si2851   Si       0.47412    0.04513    0.84636    1.000
    N2852    N        0.51516    0.05804    0.83742    1.000
    N2853    N        0.51242    0.06706    0.76894    1.000
    Si2854   Si       0.48863    0.15183    0.77676    1.000
    N2855    N        0.50401    0.17947    0.84862    1.000
    N2856    N        0.51340    0.18707    0.78066    1.000
    Si2857   Si       0.49765    0.14083    0.86880    1.000
    N2858    N        0.49192    0.03704    0.96053    1.000
    Si2859   Si       0.51308    0.01374    0.99199    1.000
    N2860    N        0.51553    0.02189    0.89444    1.000
    Si2861   Si       0.48197    0.13134    0.94096    1.000
    N2862    N        0.52078    0.11995    0.95816    1.000
    Si2863   Si       0.49090    0.20088    0.88434    1.000
    N2864    N        0.49184    0.16169    0.90850    1.000
    Si2865   Si       0.49426    0.23280    0.97119    1.000
    Si2866   Si       0.47928    0.28315    0.02679    1.000
    N2867    N        0.49584    0.32297    0.02763    1.000
    Si2868   Si       0.50347    0.26914    0.09487    1.000
    N2869    N        0.46857    0.34521    0.11972    1.000
    N2870    N        0.50580    0.26005    0.05017    1.000
    N2871    N        0.48741    0.38900    0.01015    1.000
    Si2872   Si       0.49424    0.40477    0.05131    1.000
    N2873    N        0.48813    0.46640    0.11396    1.000
    N2874    N        0.46179    0.40828    0.08170    1.000
    N2875    N        0.48943    0.46050    0.99697    1.000
    Si2876   Si       0.46826    0.33203    0.21168    1.000
    N2877    N        0.50478    0.28793    0.13634    1.000
    N2878    N        0.49601    0.33369    0.18079    1.000
    Si2879   Si       0.47318    0.31451    0.14944    1.000
    Si2880   Si       0.51810    0.36981    0.16955    1.000
    N2881    N        0.46218    0.28875    0.22029    1.000
    Si2882   Si       0.50178    0.44326    0.18363    1.000
    N2883    N        0.50315    0.43532    0.22753    1.000
    N2884    N        0.49101    0.40501    0.16885    1.000
    Si2885   Si       0.48250    0.50059    0.13975    1.000
    N2886    N        0.46494    0.48627    0.24570    1.000
    N2887    N        0.47835    0.48174    0.17843    1.000
    N2888    N        0.48824    0.36177    0.31233    1.000
    Si2889   Si       0.47897    0.34279    0.35404    1.000
    Si2890   Si       0.48695    0.32729    0.28251    1.000
    N2891    N        0.50926    0.31321    0.35890    1.000
    N2892    N        0.49598    0.34518    0.24463    1.000
    N2893    N        0.50883    0.45589    0.29336    1.000
    Si2894   Si       0.48879    0.41216    0.36154    1.000
    Si2895   Si       0.46801    0.44546    0.30540    1.000
    Si2896   Si       0.50490    0.28474    0.39014    1.000
    Si2897   Si       0.50595    0.33797    0.48514    1.000
    N2898    N        0.47125    0.29008    0.41745    1.000
    N2899    N        0.48772    0.37440    0.38241    1.000
    Si2900   Si       0.47760    0.27316    0.45682    1.000
    N2901    N        0.47872    0.30530    0.48794    1.000
    N2902    N        0.51748    0.34746    0.44282    1.000
    Si2903   Si       0.49982    0.38241    0.42267    1.000
    Si2904   Si       0.48639    0.48842    0.39579    1.000
    N2905    N        0.47023    0.40410    0.44495    1.000
    N2906    N        0.48065    0.44803    0.38309    1.000
    N2907    N        0.51272    0.48535    0.43086    1.000
    N2908    N        0.51775    0.43964    0.48341    1.000
    Si2909   Si       0.48405    0.41412    0.48598    1.000
    Si2910   Si       0.50405    0.36141    0.60200    1.000
    N2911    N        0.50687    0.34766    0.56226    1.000
    N2912    N        0.48637    0.28500    0.54980    1.000
    Si2913   Si       0.47216    0.36454    0.54357    1.000
    N2914    N        0.48712    0.37309    0.50319    1.000
    Si2915   Si       0.51237    0.26418    0.57807    1.000
    N2916    N        0.46232    0.36845    0.61722    1.000
    N2917    N        0.50676    0.26688    0.61917    1.000
    N2918    N        0.51003    0.44613    0.54798    1.000
    Si2919   Si       0.46832    0.43891    0.54611    1.000
    N2920    N        0.50289    0.50885    0.51464    1.000
    Si2921   Si       0.46142    0.51038    0.53453    1.000
    Si2922   Si       0.50257    0.30035    0.64677    1.000
    N2923    N        0.47947    0.36078    0.68760    1.000
    Si2924   Si       0.48991    0.32795    0.71623    1.000
    N2925    N        0.52126    0.30167    0.68871    1.000
    N2926    N        0.52126    0.33784    0.74416    1.000
    N2927    N        0.49471    0.43203    0.67884    1.000
    Si2928   Si       0.47801    0.46697    0.65388    1.000
    N2929    N        0.46962    0.50353    0.62503    1.000
    Si2930   Si       0.47670    0.40051    0.70704    1.000
    N2931    N        0.49108    0.50506    0.72892    1.000
    N2932    N        0.51862    0.48417    0.65947    1.000
    N2933    N        0.48588    0.28175    0.79257    1.000
    Si2934   Si       0.47850    0.30920    0.82981    1.000
    N2935    N        0.49354    0.34888    0.81079    1.000
    Si2936   Si       0.49228    0.35962    0.76800    1.000
    N2937    N        0.49846    0.28435    0.85740    1.000
    Si2938   Si       0.50538    0.36246    0.85355    1.000
    N2939    N        0.46899    0.33816    0.86665    1.000
    N2940    N        0.48996    0.43235    0.81500    1.000
    Si2941   Si       0.48860    0.43707    0.77078    1.000
    N2942    N        0.48844    0.39947    0.75022    1.000
    Si2943   Si       0.45909    0.43058    0.84705    1.000
    Si2944   Si       0.48252    0.30435    0.89408    1.000
    N2945    N        0.48175    0.27208    0.98377    1.000
    Si2946   Si       0.49276    0.35042    0.99246    1.000
    N2947    N        0.51746    0.32219    0.90878    1.000
    N2948    N        0.46208    0.33639    0.96344    1.000
    N2949    N        0.49030    0.39929    0.87153    1.000
    Si2950   Si       0.50704    0.41462    0.90875    1.000
    N2951    N        0.47326    0.41724    0.94085    1.000
    Si2952   Si       0.47362    0.42170    0.98372    1.000
    N2953    N        0.48202    0.50558    0.91847    1.000
    N2954    N        0.50138    0.54739    0.08192    1.000
    Si2955   Si       0.50449    0.62240    0.02230    1.000
    Si2956   Si       0.46685    0.55884    0.10640    1.000
    N2957    N        0.49237    0.62655    0.06632    1.000
    N2958    N        0.49633    0.75188    0.10274    1.000
    N2959    N        0.50790    0.71003    0.04188    1.000
    Si2960   Si       0.47093    0.72366    0.02445    1.000
    N2961    N        0.51654    0.68300    0.10110    1.000
    N2962    N        0.48634    0.58778    0.13779    1.000
    Si2963   Si       0.50083    0.57716    0.22596    1.000
    N2964    N        0.47018    0.54693    0.21990    1.000
    N2965    N        0.47549    0.61189    0.23388    1.000
    Si2966   Si       0.47050    0.62710    0.14754    1.000
    N2967    N        0.51574    0.52806    0.14265    1.000
    Si2968   Si       0.48630    0.50662    0.21434    1.000
    N2969    N        0.47765    0.71172    0.16310    1.000
    Si2970   Si       0.46235    0.71221    0.20514    1.000
    Si2971   Si       0.51002    0.68725    0.14272    1.000
    N2972    N        0.48370    0.68379    0.22855    1.000
    Si2973   Si       0.46665    0.74562    0.13553    1.000
    N2974    N        0.50663    0.64893    0.15931    1.000
    N2975    N        0.47092    0.74957    0.22641    1.000
    N2976    N        0.48341    0.58442    0.32865    1.000
    N2977    N        0.49668    0.52674    0.29873    1.000
    Si2978   Si       0.47184    0.55205    0.35643    1.000
    Si2979   Si       0.51890    0.56999    0.30955    1.000
    Si2980   Si       0.45977    0.62139    0.32855    1.000
    N2981    N        0.49878    0.52232    0.37129    1.000
    Si2982   Si       0.48917    0.74309    0.35536    1.000
    Si2983   Si       0.50810    0.67777    0.30615    1.000
    Si2984   Si       0.47395    0.65089    0.25648    1.000
    N2985    N        0.47544    0.70529    0.34026    1.000
    N2986    N        0.46817    0.65376    0.30186    1.000
    N2987    N        0.51072    0.71313    0.28159    1.000
    N2988    N        0.46767    0.64078    0.36765    1.000
    N2989    N        0.52003    0.65239    0.27049    1.000
    N2990    N        0.49901    0.54611    0.44951    1.000
    N2991    N        0.49791    0.62084    0.42621    1.000
    Si2992   Si       0.46364    0.61321    0.40079    1.000
    N2993    N        0.46419    0.57215    0.39301    1.000
    Si2994   Si       0.46694    0.68311    0.38039    1.000
    Si2995   Si       0.49736    0.66245    0.44495    1.000
    N2996    N        0.49618    0.68983    0.41099    1.000
    N2997    N        0.50633    0.75409    0.43473    1.000
    N2998    N        0.51010    0.58718    0.56058    1.000
    Si2999   Si       0.48300    0.54094    0.61084    1.000
    Si3000   Si       0.46698    0.57616    0.55354    1.000
    Si3001   Si       0.51614    0.61244    0.52573    1.000
    N3002    N        0.46478    0.56053    0.51409    1.000
    N3003    N        0.46594    0.53645    0.57023    1.000
    N3004    N        0.46294    0.58215    0.61668    1.000
    Si3005   Si       0.50308    0.54568    0.49337    1.000
    N3006    N        0.48129    0.64138    0.52231    1.000
    Si3007   Si       0.49750    0.74645    0.60982    1.000
    Si3008   Si       0.48676    0.73491    0.53582    1.000
    N3009    N        0.50319    0.66551    0.58933    1.000
    Si3010   Si       0.50701    0.67012    0.54359    1.000
    Si3011   Si       0.46376    0.68484    0.59574    1.000
    N3012    N        0.48473    0.75988    0.49985    1.000
    N3013    N        0.46216    0.70294    0.55371    1.000
    Si3014   Si       0.46296    0.51769    0.69948    1.000
    N3015    N        0.48108    0.55077    0.67798    1.000
    Si3016   Si       0.47414    0.59030    0.65797    1.000
    N3017    N        0.51388    0.60555    0.66861    1.000
    Si3018   Si       0.48725    0.70012    0.70770    1.000
    N3019    N        0.49987    0.65826    0.70818    1.000
    N3020    N        0.46712    0.71754    0.62256    1.000
    N3021    N        0.47173    0.71292    0.74610    1.000
    N3022    N        0.47578    0.58404    0.77913    1.000
    N3023    N        0.50630    0.55852    0.83627    1.000
    Si3024   Si       0.46756    0.55631    0.81212    1.000
    N3025    N        0.49460    0.62768    0.86642    1.000
    Si3026   Si       0.50371    0.58556    0.87056    1.000
    Si3027   Si       0.51790    0.57463    0.77277    1.000
    N3028    N        0.47234    0.65096    0.80089    1.000
    Si3029   Si       0.49121    0.66362    0.83686    1.000
    Si3030   Si       0.48729    0.75365    0.76362    1.000
    N3031    N        0.47549    0.68859    0.86765    1.000
    Si3032   Si       0.48124    0.54826    0.93182    1.000
    N3033    N        0.47312    0.56883    0.89392    1.000
    N3034    N        0.46810    0.62461    0.99728    1.000
    N3035    N        0.51983    0.55665    0.95032    1.000
    N3036    N        0.47704    0.72460    0.98127    1.000
    N3037    N        0.46681    0.66348    0.93506    1.000
    Si3038   Si       0.51605    0.72538    0.96070    1.000
    Si3039   Si       0.49333    0.72678    0.87930    1.000
    N3040    N        0.49743    0.71906    0.92187    1.000
    Si3041   Si       0.48960    0.66182    0.89930    1.000
    Si3042   Si       0.48492    0.78080    0.07286    1.000
    Si3043   Si       0.46649    0.79679    0.00716    1.000
    N3044    N        0.46814    0.76593    0.03613    1.000
    N3045    N        0.46612    0.87044    0.08901    1.000
    N3046    N        0.52234    0.79653    0.05720    1.000
    N3047    N        0.50079    0.99603    0.09459    1.000
    Si3048   Si       0.48290    0.90302    0.06673    1.000
    N3049    N        0.48530    0.98610    0.00980    1.000
    N3050    N        0.47374    0.90204    0.02583    1.000
    Si3051   Si       0.47224    0.94310    0.00434    1.000
    Si3052   Si       0.49539    0.00077    0.05148    1.000
    Si3053   Si       0.51950    0.88648    0.00202    1.000
    N3054    N        0.49264    0.81811    0.20974    1.000
    N3055    N        0.49622    0.83392    0.14121    1.000
    Si3056   Si       0.48751    0.80082    0.16988    1.000
    Si3057   Si       0.46569    0.86270    0.13051    1.000
    Si3058   Si       0.50589    0.77584    0.22365    1.000
    N3059    N        0.51583    0.76977    0.17801    1.000
    N3060    N        0.47678    0.90323    0.14464    1.000
    Si3061   Si       0.51483    0.95911    0.23584    1.000
    Si3062   Si       0.47171    0.98144    0.17655    1.000
    Si3063   Si       0.50573    0.91481    0.17489    1.000
    N3064    N        0.49659    0.95255    0.19662    1.000
    N3065    N        0.50768    0.89054    0.21108    1.000
    N3066    N        0.48973    0.83656    0.30566    1.000
    N3067    N        0.49713    0.76939    0.32099    1.000
    Si3068   Si       0.46646    0.80105    0.31325    1.000
    N3069    N        0.47663    0.89609    0.27280    1.000
    N3070    N        0.49769    0.98597    0.36087    1.000
    N3071    N        0.47728    0.96305    0.25793    1.000
    N3072    N        0.48650    0.91576    0.36241    1.000
    Si3073   Si       0.51908    0.89015    0.25874    1.000
    Si3074   Si       0.46598    0.98871    0.33010    1.000
    Si3075   Si       0.51983    0.94699    0.36895    1.000
    N3076    N        0.49286    0.87237    0.42453    1.000
    Si3077   Si       0.48917    0.83412    0.44471    1.000
    N3078    N        0.46922    0.85430    0.48034    1.000
    Si3079   Si       0.46619    0.76509    0.42251    1.000
    Si3080   Si       0.52036    0.76921    0.47405    1.000
    N3081    N        0.45935    0.75655    0.38089    1.000
    Si3082   Si       0.50791    0.88668    0.38512    1.000
    N3083    N        0.50991    0.91387    0.47506    1.000
    Si3084   Si       0.47368    0.89237    0.46096    1.000
    Si3085   Si       0.48281    0.99048    0.40137    1.000
    N3086    N        0.50561    0.95528    0.41406    1.000
    N3087    N        0.51729    0.98265    0.48110    1.000
    Si3088   Si       0.50275    0.80224    0.55670    1.000
    N3089    N        0.46559    0.82516    0.55253    1.000
    N3090    N        0.49154    0.76234    0.56900    1.000
    Si3091   Si       0.47600    0.93835    0.53067    1.000
    N3092    N        0.47232    0.91372    0.56631    1.000
    N3093    N        0.46492    0.97910    0.54169    1.000
    Si3094   Si       0.51530    0.91212    0.57210    1.000
    Si3095   Si       0.45956    0.00065    0.58007    1.000
    N3096    N        0.48585    0.01003    0.61453    1.000
    N3097    N        0.51612    0.83239    0.72209    1.000
    N3098    N        0.49739    0.78165    0.63558    1.000
    Si3099   Si       0.50425    0.84430    0.68159    1.000
    N3100    N        0.46919    0.78255    0.73709    1.000
    N3101    N        0.46542    0.82400    0.67431    1.000
    Si3102   Si       0.48018    0.82555    0.74599    1.000
    N3103    N        0.50737    0.95058    0.67205    1.000
    N3104    N        0.48944    0.88433    0.67183    1.000
    N3105    N        0.47507    0.97795    0.73337    1.000
    Si3106   Si       0.47114    0.95832    0.69520    1.000
    Si3107   Si       0.51125    0.98420    0.64512    1.000
    N3108    N        0.49475    0.82377    0.78863    1.000
    N3109    N        0.48629    0.83589    0.85840    1.000
    Si3110   Si       0.46511    0.83524    0.81983    1.000
    N3111    N        0.46820    0.76311    0.87131    1.000
    Si3112   Si       0.50347    0.93707    0.83137    1.000
    N3113    N        0.48187    0.89840    0.83867    1.000
    N3114    N        0.48057    0.95370    0.80012    1.000
    Si3115   Si       0.49087    0.98498    0.77221    1.000
    N3116    N        0.47884    0.00197    0.84594    1.000
    N3117    N        0.50937    0.95013    0.87294    1.000
    Si3118   Si       0.49519    0.87466    0.87294    1.000
    Si3119   Si       0.50499    0.83141    0.95419    1.000
    N3120    N        0.48032    0.81420    0.92299    1.000
    Si3121   Si       0.49257    0.80024    0.88445    1.000
    N3122    N        0.49004    0.86890    0.97202    1.000
    N3123    N        0.50773    0.80764    0.99104    1.000
    Si3124   Si       0.49025    0.98547    0.88502    1.000
    N3125    N        0.47392    0.89005    0.90684    1.000
    Si3126   Si       0.48993    0.90581    0.94578    1.000
    N3127    N        0.51416    0.92894    0.99144    1.000
    N3128    N        0.54942    0.11036    0.08947    1.000
    Si3129   Si       0.54992    0.05180    0.03446    1.000
    Si3130   Si       0.55290    0.06721    0.10329    1.000
    N3131    N        0.56505    0.08990    0.01715    1.000
    N3132    N        0.56678    0.03867    0.07550    1.000
    N3133    N        0.55713    0.01979    0.00271    1.000
    Si3134   Si       0.53524    0.11878    0.00001    1.000
    N3135    N        0.53678    0.23952    0.10069    1.000
    N3136    N        0.55218    0.21719    0.02736    1.000
    N3137    N        0.54975    0.15931    0.00943    1.000
    Si3138   Si       0.57479    0.25658    0.11365    1.000
    Si3139   Si       0.55018    0.25548    0.04977    1.000
    Si3140   Si       0.52124    0.19834    0.10426    1.000
    Si3141   Si       0.52088    0.18757    0.02740    1.000
    N3142    N        0.53754    0.11581    0.15380    1.000
    Si3143   Si       0.53094    0.01840    0.19350    1.000
    Si3144   Si       0.56393    0.08619    0.17428    1.000
    N3145    N        0.54003    0.06143    0.20102    1.000
    Si3146   Si       0.52212    0.08369    0.23471    1.000
    N3147    N        0.57463    0.05885    0.14058    1.000
    Si3148   Si       0.56300    0.13437    0.12149    1.000
    N3149    N        0.52562    0.26015    0.23251    1.000
    N3150    N        0.53794    0.20891    0.18004    1.000
    Si3151   Si       0.57293    0.19576    0.15603    1.000
    Si3152   Si       0.54283    0.21944    0.22113    1.000
    N3153    N        0.55352    0.17631    0.12381    1.000
    N3154    N        0.55223    0.08937    0.33592    1.000
    N3155    N        0.55238    0.10373    0.26027    1.000
    Si3156   Si       0.53773    0.11541    0.30093    1.000
    N3157    N        0.55583    0.02348    0.29949    1.000
    N3158    N        0.54973    0.02567    0.36395    1.000
    Si3159   Si       0.57047    0.04921    0.33223    1.000
    Si3160   Si       0.52534    0.02256    0.26963    1.000
    N3161    N        0.55281    0.15678    0.30854    1.000
    Si3162   Si       0.56842    0.18265    0.27430    1.000
    N3163    N        0.55272    0.19450    0.36147    1.000
    Si3164   Si       0.52289    0.17353    0.33696    1.000
    N3165    N        0.53218    0.18560    0.24796    1.000
    Si3166   Si       0.55204    0.23846    0.37149    1.000
    Si3167   Si       0.53951    0.11046    0.37241    1.000
    Si3168   Si       0.57408    0.03169    0.47237    1.000
    N3169    N        0.52560    0.08068    0.39891    1.000
    N3170    N        0.53293    0.04757    0.47690    1.000
    Si3171   Si       0.54150    0.03934    0.40347    1.000
    N3172    N        0.53929    0.11431    0.46707    1.000
    N3173    N        0.57300    0.02851    0.42870    1.000
    Si3174   Si       0.55756    0.18171    0.40726    1.000
    N3175    N        0.52959    0.18236    0.44093    1.000
    N3176    N        0.57084    0.22739    0.41189    1.000
    Si3177   Si       0.52653    0.15578    0.47552    1.000
    N3178    N        0.56376    0.13964    0.39636    1.000
    Si3179   Si       0.55673    0.25939    0.44020    1.000
    N3180    N        0.53933    0.05466    0.59348    1.000
    N3181    N        0.54608    0.11934    0.56301    1.000
    Si3182   Si       0.56362    0.09070    0.59189    1.000
    Si3183   Si       0.55840    0.01416    0.59233    1.000
    N3184    N        0.54875    0.16062    0.51220    1.000
    N3185    N        0.56868    0.18919    0.56487    1.000
    Si3186   Si       0.53041    0.19195    0.53956    1.000
    Si3187   Si       0.57638    0.14434    0.54260    1.000
    Si3188   Si       0.54750    0.03166    0.68911    1.000
    N3189    N        0.54843    0.07233    0.67293    1.000
    N3190    N        0.55480    0.02269    0.73089    1.000
    N3191    N        0.56889    0.11740    0.62645    1.000
    N3192    N        0.57198    0.13549    0.68975    1.000
    N3193    N        0.53668    0.18796    0.71603    1.000
    N3194    N        0.52797    0.25125    0.74288    1.000
    Si3195   Si       0.54923    0.14618    0.65045    1.000
    N3196    N        0.56703    0.18496    0.64421    1.000
    N3197    N        0.56145    0.24243    0.68221    1.000
    Si3198   Si       0.54490    0.14578    0.72368    1.000
    Si3199   Si       0.56949    0.19977    0.68697    1.000
    Si3200   Si       0.54294    0.03620    0.77017    1.000
    N3201    N        0.55481    0.11217    0.81676    1.000
    Si3202   Si       0.54225    0.03557    0.86142    1.000
    Si3203   Si       0.56590    0.10581    0.85910    1.000
    Si3204   Si       0.51824    0.08864    0.80664    1.000
    N3205    N        0.53356    0.24142    0.81919    1.000
    Si3206   Si       0.53266    0.19890    0.81660    1.000
    N3207    N        0.57385    0.18618    0.81171    1.000
    N3208    N        0.57709    0.14372    0.75289    1.000
    Si3209   Si       0.53390    0.25929    0.85866    1.000
    N3210    N        0.57258    0.06420    0.87465    1.000
    N3211    N        0.56150    0.04941    0.94061    1.000
    N3212    N        0.53201    0.11866    0.88304    1.000
    Si3213   Si       0.52638    0.02580    0.93322    1.000
    Si3214   Si       0.54393    0.13267    0.92280    1.000
    Si3215   Si       0.57815    0.01452    0.96392    1.000
    N3216    N        0.52606    0.22684    0.88819    1.000
    Si3217   Si       0.56554    0.23831    0.99036    1.000
    Si3218   Si       0.55144    0.21421    0.92110    1.000
    N3219    N        0.56401    0.17154    0.91876    1.000
    N3220    N        0.53488    0.23394    0.95559    1.000
    N3221    N        0.56259    0.34172    0.03430    1.000
    N3222    N        0.53066    0.30725    0.08578    1.000
    N3223    N        0.55797    0.27721    0.00952    1.000
    Si3224   Si       0.52582    0.33710    0.05446    1.000
    N3225    N        0.52199    0.37733    0.07128    1.000
    Si3226   Si       0.55099    0.38361    0.10322    1.000
    Si3227   Si       0.56294    0.31878    0.99822    1.000
    Si3228   Si       0.52702    0.45678    0.09494    1.000
    N3229    N        0.56537    0.46223    0.00814    1.000
    N3230    N        0.55254    0.49182    0.09706    1.000
    Si3231   Si       0.52333    0.47220    0.02061    1.000
    N3232    N        0.54832    0.42432    0.11710    1.000
    N3233    N        0.51679    0.44294    0.05487    1.000
    N3234    N        0.57267    0.28988    0.14024    1.000
    Si3235   Si       0.53855    0.31344    0.12867    1.000
    Si3236   Si       0.53565    0.36253    0.24069    1.000
    N3237    N        0.54665    0.37669    0.20153    1.000
    N3238    N        0.53837    0.35605    0.13474    1.000
    Si3239   Si       0.57120    0.44025    0.15151    1.000
    N3240    N        0.54168    0.45967    0.17605    1.000
    Si3241   Si       0.55882    0.47847    0.21302    1.000
    Si3242   Si       0.54193    0.30582    0.33122    1.000
    N3243    N        0.56067    0.34507    0.32957    1.000
    Si3244   Si       0.53136    0.37741    0.31548    1.000
    Si3245   Si       0.54743    0.28899    0.25876    1.000
    N3246    N        0.56603    0.26782    0.34310    1.000
    N3247    N        0.56583    0.32880    0.24801    1.000
    N3248    N        0.52081    0.30133    0.29223    1.000
    N3249    N        0.53929    0.39141    0.27444    1.000
    Si3250   Si       0.55626    0.44296    0.34888    1.000
    N3251    N        0.53894    0.48098    0.34762    1.000
    N3252    N        0.52750    0.41028    0.34324    1.000
    Si3253   Si       0.52972    0.43281    0.26189    1.000
    Si3254   Si       0.52483    0.49530    0.30810    1.000
    N3255    N        0.56691    0.45516    0.24977    1.000
    N3256    N        0.55901    0.50945    0.28622    1.000
    N3257    N        0.57104    0.35979    0.39440    1.000
    Si3258   Si       0.55291    0.33158    0.42058    1.000
    N3259    N        0.54572    0.29059    0.41057    1.000
    N3260    N        0.57177    0.46518    0.44244    1.000
    N3261    N        0.53345    0.41147    0.42185    1.000
    Si3262   Si       0.57311    0.40041    0.40728    1.000
    Si3263   Si       0.53142    0.44880    0.44357    1.000
    N3264    N        0.54867    0.28334    0.56503    1.000
    N3265    N        0.54190    0.32603    0.50592    1.000
    Si3266   Si       0.52573    0.31320    0.54422    1.000
    N3267    N        0.56221    0.39666    0.54629    1.000
    N3268    N        0.52924    0.39601    0.60442    1.000
    N3269    N        0.56646    0.45700    0.58205    1.000
    Si3270   Si       0.53989    0.42345    0.57109    1.000
    N3271    N        0.56564    0.48242    0.51750    1.000
    Si3272   Si       0.52469    0.47092    0.51503    1.000
    N3273    N        0.55743    0.36860    0.67745    1.000
    Si3274   Si       0.55825    0.32445    0.68093    1.000
    Si3275   Si       0.52702    0.26054    0.70142    1.000
    N3276    N        0.58006    0.31302    0.71708    1.000
    N3277    N        0.52097    0.33522    0.63089    1.000
    N3278    N        0.56460    0.42933    0.64698    1.000
    N3279    N        0.55249    0.43041    0.71487    1.000
    Si3280   Si       0.57498    0.39391    0.70838    1.000
    N3281    N        0.56386    0.49854    0.73552    1.000
    Si3282   Si       0.53725    0.44438    0.67510    1.000
    Si3283   Si       0.55873    0.38677    0.63696    1.000
    Si3284   Si       0.56444    0.45614    0.74805    1.000
    N3285    N        0.54836    0.35794    0.85968    1.000
    N3286    N        0.56066    0.29970    0.78526    1.000
    Si3287   Si       0.52710    0.26873    0.78478    1.000
    Si3288   Si       0.56246    0.32878    0.75398    1.000
    N3289    N        0.56781    0.28223    0.87194    1.000
    N3290    N        0.52886    0.46170    0.77281    1.000
    N3291    N        0.53431    0.48995    0.83333    1.000
    N3292    N        0.55517    0.42825    0.84302    1.000
    Si3293   Si       0.53002    0.45094    0.81605    1.000
    Si3294   Si       0.52483    0.50196    0.75399    1.000
    Si3295   Si       0.55536    0.46996    0.87105    1.000
    Si3296   Si       0.57608    0.39166    0.85412    1.000
    Si3297   Si       0.54056    0.34672    0.93424    1.000
    N3298    N        0.53135    0.33933    0.97551    1.000
    Si3299   Si       0.57334    0.32595    0.87906    1.000
    N3300    N        0.53974    0.39004    0.92678    1.000
    Si3301   Si       0.52432    0.49463    0.92168    1.000
    N3302    N        0.52508    0.45527    0.90176    1.000
    N3303    N        0.54758    0.49689    0.95659    1.000
    N3304    N        0.56209    0.54853    0.06300    1.000
    Si3305   Si       0.54157    0.53416    0.10318    1.000
    N3306    N        0.56614    0.62780    0.08574    1.000
    N3307    N        0.52415    0.58398    0.01547    1.000
    Si3308   Si       0.52135    0.55208    0.04342    1.000
    N3309    N        0.52006    0.51552    0.01857    1.000
    Si3310   Si       0.52157    0.72158    0.08354    1.000
    N3311    N        0.54102    0.64784    0.03347    1.000
    Si3312   Si       0.53771    0.68918    0.01846    1.000
    N3313    N        0.55932    0.74262    0.07816    1.000
    Si3314   Si       0.52618    0.64813    0.07776    1.000
    N3315    N        0.57672    0.70954    0.02057    1.000
    N3316    N        0.53099    0.51150    0.22275    1.000
    N3317    N        0.52564    0.59164    0.19141    1.000
    N3318    N        0.56376    0.56685    0.12935    1.000
    Si3319   Si       0.53981    0.63376    0.18460    1.000
    Si3320   Si       0.52352    0.57109    0.15225    1.000
    N3321    N        0.57755    0.63103    0.16146    1.000
    Si3322   Si       0.54901    0.74042    0.18270    1.000
    N3323    N        0.54674    0.70832    0.15336    1.000
    N3324    N        0.55312    0.66051    0.21636    1.000
    Si3325   Si       0.52516    0.68975    0.24161    1.000
    N3326    N        0.53734    0.72670    0.22120    1.000
    Si3327   Si       0.54122    0.61527    0.26975    1.000
    N3328    N        0.54649    0.55291    0.34125    1.000
    N3329    N        0.54241    0.60841    0.31396    1.000
    N3330    N        0.52936    0.57456    0.26131    1.000
    Si3331   Si       0.55264    0.53719    0.25289    1.000
    Si3332   Si       0.54459    0.51858    0.36857    1.000
    Si3333   Si       0.55289    0.63766    0.34572    1.000
    Si3334   Si       0.52462    0.75360    0.29120    1.000
    N3335    N        0.56297    0.74812    0.31286    1.000
    N3336    N        0.53990    0.67836    0.33685    1.000
    Si3337   Si       0.55912    0.71876    0.34529    1.000
    Si3338   Si       0.56659    0.56635    0.48204    1.000
    Si3339   Si       0.54176    0.62021    0.42769    1.000
    N3340    N        0.55963    0.53389    0.40538    1.000
    N3341    N        0.56030    0.52616    0.47096    1.000
    Si3342   Si       0.53350    0.52142    0.43708    1.000
    N3343    N        0.57300    0.59137    0.44335    1.000
    N3344    N        0.55561    0.62703    0.38749    1.000
    Si3345   Si       0.52490    0.72211    0.41223    1.000
    N3346    N        0.53003    0.73830    0.37272    1.000
    N3347    N        0.55787    0.75293    0.48791    1.000
    N3348    N        0.54002    0.65640    0.45520    1.000
    N3349    N        0.56406    0.70439    0.41819    1.000
    N3350    N        0.55493    0.61455    0.60695    1.000
    Si3351   Si       0.54355    0.57616    0.58989    1.000
    N3352    N        0.52726    0.54623    0.61709    1.000
    N3353    N        0.52999    0.58008    0.50111    1.000
    N3354    N        0.54214    0.64431    0.53681    1.000
    Si3355   Si       0.56051    0.73089    0.52666    1.000
    Si3356   Si       0.54045    0.65490    0.60950    1.000
    Si3357   Si       0.57448    0.75146    0.60281    1.000
    N3358    N        0.53776    0.73203    0.61800    1.000
    N3359    N        0.52294    0.71035    0.53115    1.000
    N3360    N        0.56443    0.75792    0.56080    1.000
    N3361    N        0.55374    0.54124    0.68103    1.000
    N3362    N        0.52963    0.57975    0.73041    1.000
    Si3363   Si       0.54342    0.51775    0.64493    1.000
    N3364    N        0.57035    0.63024    0.70497    1.000
    Si3365   Si       0.56608    0.60241    0.74121    1.000
    Si3366   Si       0.52051    0.56905    0.68958    1.000
    Si3367   Si       0.55053    0.74127    0.71841    1.000
    Si3368   Si       0.53305    0.64238    0.68487    1.000
    N3369    N        0.53958    0.66922    0.65187    1.000
    N3370    N        0.52054    0.72310    0.69192    1.000
    Si3371   Si       0.54448    0.71200    0.65603    1.000
    N3372    N        0.54762    0.60565    0.78310    1.000
    Si3373   Si       0.53690    0.53119    0.82524    1.000
    N3374    N        0.53005    0.53393    0.78242    1.000
    N3375    N        0.57342    0.54848    0.83844    1.000
    Si3376   Si       0.56314    0.63873    0.80709    1.000
    N3377    N        0.53394    0.66341    0.83170    1.000
    Si3378   Si       0.55789    0.70059    0.83857    1.000
    N3379    N        0.53328    0.72791    0.85866    1.000
    N3380    N        0.56513    0.71635    0.79869    1.000
    N3381    N        0.53069    0.75377    0.75692    1.000
    Si3382   Si       0.54374    0.63444    0.87045    1.000
    N3383    N        0.55585    0.61775    0.95956    1.000
    N3384    N        0.54165    0.59206    0.88982    1.000
    Si3385   Si       0.54902    0.58144    0.93331    1.000
    Si3386   Si       0.53503    0.52995    0.98160    1.000
    N3387    N        0.57459    0.54860    0.99304    1.000
    N3388    N        0.54997    0.51248    0.89084    1.000
    Si3389   Si       0.58351    0.54004    0.88418    1.000
    Si3390   Si       0.55939    0.59267    0.99402    1.000
    Si3391   Si       0.54970    0.65891    0.94656    1.000
    N3392    N        0.53409    0.65945    0.90599    1.000
    N3393    N        0.53044    0.68574    0.97440    1.000
    N3394    N        0.55567    0.74379    0.96536    1.000
    Si3395   Si       0.55551    0.78575    0.08302    1.000
    N3396    N        0.56108    0.86458    0.10494    1.000
    N3397    N        0.53498    0.86044    0.03437    1.000
    Si3398   Si       0.53975    0.81693    0.02141    1.000
    N3399    N        0.57723    0.80065    0.00445    1.000
    Si3400   Si       0.55359    0.88495    0.06785    1.000
    N3401    N        0.52285    0.91573    0.07428    1.000
    N3402    N        0.56372    0.97103    0.10750    1.000
    N3403    N        0.53579    0.97897    0.04749    1.000
    Si3404   Si       0.52789    0.95784    0.08489    1.000
    Si3405   Si       0.57179    0.98177    0.02228    1.000
    N3406    N        0.55282    0.79954    0.12357    1.000
    Si3407   Si       0.53849    0.84030    0.13577    1.000
    N3408    N        0.54978    0.85200    0.17524    1.000
    Si3409   Si       0.52227    0.84878    0.20739    1.000
    Si3410   Si       0.57502    0.88936    0.17547    1.000
    N3411    N        0.56001    0.99227    0.17584    1.000
    Si3412   Si       0.56577    0.95634    0.14838    1.000
    N3413    N        0.53138    0.99946    0.23475    1.000
    N3414    N        0.54701    0.91956    0.15943    1.000
    N3415    N        0.56339    0.82845    0.30556    1.000
    Si3416   Si       0.55811    0.81695    0.26373    1.000
    Si3417   Si       0.52732    0.84768    0.32058    1.000
    N3418    N        0.53095    0.78280    0.25818    1.000
    N3419    N        0.52936    0.85593    0.36451    1.000
    N3420    N        0.54085    0.85305    0.24805    1.000
    N3421    N        0.53650    0.88904    0.30314    1.000
    N3422    N        0.54091    0.93229    0.25703    1.000
    Si3423   Si       0.55345    0.92982    0.30157    1.000
    N3424    N        0.54364    0.95889    0.33151    1.000
    Si3425   Si       0.52964    0.00138    0.33337    1.000
    Si3426   Si       0.56747    0.87581    0.38120    1.000
    N3427    N        0.57247    0.85058    0.41750    1.000
    Si3428   Si       0.55388    0.82906    0.49005    1.000
    N3429    N        0.56187    0.87168    0.48930    1.000
    N3430    N        0.51935    0.81235    0.46693    1.000
    N3431    N        0.56695    0.95131    0.44142    1.000
    Si3432   Si       0.52438    0.94831    0.45304    1.000
    N3433    N        0.54951    0.91528    0.38536    1.000
    Si3434   Si       0.55308    0.84361    0.56101    1.000
    N3435    N        0.53607    0.81754    0.53001    1.000
    N3436    N        0.52491    0.82253    0.58914    1.000
    N3437    N        0.53774    0.88263    0.54914    1.000
    Si3438   Si       0.53816    0.90400    0.50934    1.000
    Si3439   Si       0.54688    0.97057    0.51789    1.000
    N3440    N        0.56029    0.99657    0.55181    1.000
    N3441    N        0.57342    0.93249    0.50385    1.000
    N3442    N        0.52474    0.91544    0.61431    1.000
    N3443    N        0.51961    0.94189    0.53636    1.000
    Si3444   Si       0.55815    0.81739    0.72641    1.000
    Si3445   Si       0.53367    0.80547    0.62757    1.000
    N3446    N        0.53756    0.83712    0.65651    1.000
    N3447    N        0.56191    0.78035    0.70272    1.000
    Si3448   Si       0.57336    0.85894    0.66970    1.000
    N3449    N        0.57829    0.79070    0.62576    1.000
    N3450    N        0.54874    0.98657    0.62380    1.000
    N3451    N        0.55952    0.89912    0.67720    1.000
    Si3452   Si       0.52111    0.91071    0.65692    1.000
    N3453    N        0.54999    0.86149    0.81453    1.000
    N3454    N        0.54296    0.78367    0.82088    1.000
    Si3455   Si       0.53756    0.82218    0.80028    1.000
    N3456    N        0.56768    0.81246    0.76914    1.000
    Si3457   Si       0.55376    0.76616    0.85970    1.000
    Si3458   Si       0.56727    0.86247    0.85610    1.000
    Si3459   Si       0.56185    0.75880    0.78885    1.000
    Si3460   Si       0.56808    0.90115    0.81172    1.000
    Si3461   Si       0.55970    0.97910    0.81057    1.000
    N3462    N        0.54568    0.93773    0.81784    1.000
    N3463    N        0.52932    0.99832    0.78466    1.000
    N3464    N        0.56657    0.99941    0.84976    1.000
    N3465    N        0.54307    0.84179    0.93339    1.000
    N3466    N        0.53355    0.78885    0.89090    1.000
    Si3467   Si       0.56432    0.81315    0.90953    1.000
    Si3468   Si       0.55913    0.88041    0.93819    1.000
    N3469    N        0.53755    0.88570    0.87449    1.000
    N3470    N        0.53495    0.98892    0.95621    1.000
    Si3471   Si       0.54233    0.94718    0.96472    1.000
    N3472    N        0.56037    0.88435    0.98314    1.000
    N3473    N        0.53524    0.91692    0.93418    1.000
    Si3474   Si       0.54018    0.92538    0.89075    1.000
    N3475    N        0.57777    0.95183    0.99217    1.000
    Si3476   Si       0.60734    0.10646    0.02733    1.000
    N3477    N        0.62029    0.10515    0.06861    1.000
    N3478    N        0.62139    0.00954    0.11410    1.000
    Si3479   Si       0.63465    0.11305    0.10691    1.000
    Si3480   Si       0.58591    0.18382    0.01872    1.000
    N3481    N        0.61353    0.14866    0.01717    1.000
    Si3482   Si       0.62550    0.24196    0.05912    1.000
    N3483    N        0.61636    0.19996    0.05113    1.000
    N3484    N        0.62035    0.02532    0.18243    1.000
    Si3485   Si       0.61436    0.04213    0.14315    1.000
    N3486    N        0.59448    0.10804    0.19862    1.000
    Si3487   Si       0.58992    0.11779    0.24142    1.000
    N3488    N        0.60535    0.13252    0.13124    1.000
    N3489    N        0.59627    0.22733    0.13834    1.000
    N3490    N        0.59792    0.17193    0.18264    1.000
    Si3491   Si       0.61746    0.13392    0.17362    1.000
    Si3492   Si       0.60595    0.25785    0.24292    1.000
    N3493    N        0.58609    0.22220    0.22707    1.000
    Si3494   Si       0.61279    0.18882    0.21832    1.000
    N3495    N        0.61441    0.04647    0.33082    1.000
    N3496    N        0.62512    0.10773    0.26570    1.000
    Si3497   Si       0.63604    0.02140    0.29931    1.000
    Si3498   Si       0.63432    0.06289    0.36509    1.000
    N3499    N        0.63624    0.03560    0.25769    1.000
    N3500    N        0.61561    0.14959    0.32574    1.000
    N3501    N        0.61471    0.21564    0.35644    1.000
    Si3502   Si       0.62692    0.14752    0.28339    1.000
    Si3503   Si       0.58769    0.18495    0.33649    1.000
    Si3504   Si       0.59699    0.25180    0.31543    1.000
    N3505    N        0.59794    0.16080    0.25218    1.000
    N3506    N        0.58679    0.21051    0.30020    1.000
    N3507    N        0.61514    0.10120    0.37797    1.000
    N3508    N        0.60479    0.09533    0.44230    1.000
    Si3509   Si       0.60390    0.12795    0.41195    1.000
    Si3510   Si       0.58254    0.12078    0.47055    1.000
    N3511    N        0.58845    0.26099    0.47076    1.000
    Si3512   Si       0.62821    0.25475    0.45340    1.000
    Si3513   Si       0.62910    0.17875    0.47030    1.000
    N3514    N        0.59581    0.15660    0.44974    1.000
    N3515    N        0.63051    0.15933    0.39495    1.000
    N3516    N        0.63240    0.21392    0.44127    1.000
    Si3517   Si       0.63085    0.20264    0.39891    1.000
    N3518    N        0.60158    0.07512    0.57334    1.000
    Si3519   Si       0.62017    0.05478    0.60705    1.000
    Si3520   Si       0.61364    0.08436    0.53247    1.000
    N3521    N        0.59703    0.11845    0.51007    1.000
    N3522    N        0.59613    0.05131    0.50836    1.000
    N3523    N        0.60072    0.01599    0.60772    1.000
    Si3524   Si       0.59295    0.01571    0.53137    1.000
    N3525    N        0.61652    0.14320    0.56078    1.000
    Si3526   Si       0.60949    0.20264    0.54865    1.000
    N3527    N        0.60254    0.24599    0.54528    1.000
    N3528    N        0.61867    0.18543    0.51101    1.000
    N3529    N        0.62680    0.20055    0.59122    1.000
    N3530    N        0.58251    0.24349    0.61440    1.000
    Si3531   Si       0.58118    0.20160    0.60555    1.000
    N3532    N        0.61452    0.07479    0.64428    1.000
    N3533    N        0.62209    0.10046    0.70135    1.000
    Si3534   Si       0.58362    0.09768    0.66635    1.000
    Si3535   Si       0.60672    0.14655    0.71569    1.000
    N3536    N        0.60919    0.19146    0.70242    1.000
    Si3537   Si       0.62001    0.03932    0.78064    1.000
    Si3538   Si       0.63613    0.12619    0.84534    1.000
    N3539    N        0.57835    0.04372    0.78992    1.000
    N3540    N        0.59993    0.13174    0.86831    1.000
    N3541    N        0.62161    0.13965    0.80695    1.000
    Si3542   Si       0.60825    0.21210    0.81842    1.000
    N3543    N        0.61898    0.20956    0.86177    1.000
    Si3544   Si       0.57786    0.14434    0.79731    1.000
    N3545    N        0.60502    0.25606    0.82185    1.000
    N3546    N        0.63882    0.20226    0.78759    1.000
    N3547    N        0.62963    0.05411    0.91557    1.000
    N3548    N        0.61842    0.02248    0.97695    1.000
    Si3549   Si       0.58960    0.06942    0.91273    1.000
    N3550    N        0.58345    0.11131    0.92486    1.000
    Si3551   Si       0.63403    0.01557    0.93609    1.000
    Si3552   Si       0.60113    0.14794    0.90861    1.000
    N3553    N        0.59688    0.20691    0.98223    1.000
    N3554    N        0.59034    0.23403    0.91624    1.000
    N3555    N        0.63247    0.17367    0.92093    1.000
    Si3556   Si       0.60390    0.25067    0.87667    1.000
    Si3557   Si       0.61516    0.20993    0.94204    1.000
    Si3558   Si       0.59741    0.36314    0.05132    1.000
    N3559    N        0.59138    0.36768    0.09601    1.000
    N3560    N        0.62567    0.33044    0.04538    1.000
    Si3561   Si       0.63260    0.30385    0.01127    1.000
    N3562    N        0.58880    0.26095    0.07229    1.000
    N3563    N        0.61073    0.47701    0.05925    1.000
    N3564    N        0.60075    0.40304    0.03197    1.000
    Si3565   Si       0.59409    0.48303    0.09759    1.000
    Si3566   Si       0.59962    0.44794    0.02984    1.000
    Si3567   Si       0.62124    0.35893    0.12696    1.000
    Si3568   Si       0.60519    0.30066    0.16942    1.000
    Si3569   Si       0.60700    0.32818    0.23756    1.000
    N3570    N        0.60472    0.29017    0.21105    1.000
    Si3571   Si       0.59064    0.37738    0.19239    1.000
    N3572    N        0.61649    0.36983    0.22591    1.000
    N3573    N        0.60362    0.34718    0.16534    1.000
    N3574    N        0.60075    0.48425    0.19932    1.000
    Si3575   Si       0.62344    0.44890    0.20103    1.000
    N3576    N        0.59634    0.41927    0.18287    1.000
    N3577    N        0.60533    0.45425    0.12750    1.000
    Si3578   Si       0.59346    0.35238    0.35708    1.000
    N3579    N        0.58251    0.27073    0.27691    1.000
    N3580    N        0.63577    0.31393    0.26442    1.000
    N3581    N        0.63724    0.26800    0.32498    1.000
    N3582    N        0.62073    0.38567    0.34397    1.000
    N3583    N        0.62349    0.49822    0.29211    1.000
    Si3584   Si       0.61803    0.42871    0.34610    1.000
    Si3585   Si       0.58775    0.47423    0.28308    1.000
    N3586    N        0.58985    0.44829    0.31879    1.000
    Si3587   Si       0.62900    0.49459    0.33529    1.000
    N3588    N        0.62079    0.32471    0.37354    1.000
    Si3589   Si       0.62274    0.32632    0.41998    1.000
    N3590    N        0.58701    0.32846    0.44879    1.000
    Si3591   Si       0.58262    0.33658    0.49105    1.000
    N3592    N        0.60303    0.37459    0.49546    1.000
    Si3593   Si       0.63062    0.38615    0.46110    1.000
    N3594    N        0.62450    0.48006    0.47898    1.000
    N3595    N        0.60827    0.40898    0.43196    1.000
    Si3596   Si       0.58255    0.49037    0.47814    1.000
    Si3597   Si       0.60530    0.45094    0.41835    1.000
    N3598    N        0.58537    0.43295    0.37986    1.000
    N3599    N        0.60891    0.30613    0.58814    1.000
    N3600    N        0.60703    0.31164    0.51982    1.000
    Si3601   Si       0.62784    0.32583    0.55522    1.000
    Si3602   Si       0.60721    0.26839    0.50922    1.000
    N3603    N        0.62878    0.37028    0.56203    1.000
    Si3604   Si       0.58789    0.27054    0.57973    1.000
    Si3605   Si       0.62870    0.39096    0.60371    1.000
    Si3606   Si       0.60320    0.39509    0.53460    1.000
    N3607    N        0.61508    0.43779    0.53361    1.000
    Si3608   Si       0.59103    0.47123    0.55018    1.000
    N3609    N        0.62214    0.50087    0.56077    1.000
    N3610    N        0.62343    0.43258    0.60822    1.000
    Si3611   Si       0.58766    0.45458    0.62097    1.000
    N3612    N        0.59627    0.36823    0.62269    1.000
    Si3613   Si       0.60529    0.32632    0.62668    1.000
    Si3614   Si       0.61437    0.28653    0.71533    1.000
    Si3615   Si       0.58838    0.26048    0.65377    1.000
    N3616    N        0.62555    0.26147    0.68005    1.000
    N3617    N        0.58021    0.30278    0.65011    1.000
    N3618    N        0.57750    0.37120    0.74761    1.000
    N3619    N        0.58068    0.49431    0.63513    1.000
    N3620    N        0.61608    0.40430    0.69710    1.000
    Si3621   Si       0.60071    0.28423    0.78872    1.000
    N3622    N        0.61320    0.33490    0.85942    1.000
    Si3623   Si       0.62661    0.35258    0.82044    1.000
    N3624    N        0.62698    0.32007    0.79193    1.000
    N3625    N        0.60013    0.38697    0.81579    1.000
    N3626    N        0.61443    0.26187    0.75281    1.000
    Si3627   Si       0.60195    0.39746    0.77313    1.000
    N3628    N        0.59947    0.44023    0.76669    1.000
    N3629    N        0.61146    0.49620    0.81385    1.000
    Si3630   Si       0.62711    0.47211    0.78143    1.000
    Si3631   Si       0.62584    0.48890    0.85394    1.000
    Si3632   Si       0.61513    0.34040    0.94628    1.000
    N3633    N        0.60294    0.31518    0.98030    1.000
    N3634    N        0.58157    0.33741    0.91962    1.000
    N3635    N        0.60968    0.38208    0.96076    1.000
    Si3636   Si       0.58168    0.47126    0.96784    1.000
    N3637    N        0.58978    0.44043    0.94016    1.000
    N3638    N        0.59736    0.46786    0.87648    1.000
    N3639    N        0.62809    0.44722    0.99396    1.000
    Si3640   Si       0.58256    0.39857    0.93193    1.000
    N3641    N        0.59893    0.40127    0.89119    1.000
    Si3642   Si       0.61279    0.44047    0.90382    1.000
    N3643    N        0.61463    0.49740    0.95898    1.000
    Si3644   Si       0.62541    0.40327    0.99623    1.000
    Si3645   Si       0.59249    0.55772    0.03407    1.000
    N3646    N        0.59224    0.60038    0.02350    1.000
    N3647    N        0.61840    0.52106    0.10299    1.000
    Si3648   Si       0.62983    0.61964    0.00418    1.000
    N3649    N        0.63395    0.54179    0.03908    1.000
    N3650    N        0.62093    0.59306    0.11997    1.000
    Si3651   Si       0.58126    0.63461    0.04576    1.000
    N3652    N        0.62346    0.70524    0.07874    1.000
    N3653    N        0.62070    0.65273    0.03303    1.000
    Si3654   Si       0.59355    0.72750    0.05636    1.000
    Si3655   Si       0.63134    0.71928    0.12067    1.000
    Si3656   Si       0.57953    0.60908    0.12322    1.000
    Si3657   Si       0.61830    0.52250    0.20599    1.000
    N3658    N        0.59642    0.54097    0.24016    1.000
    N3659    N        0.62714    0.54326    0.17043    1.000
    Si3660   Si       0.60765    0.55249    0.12986    1.000
    Si3661   Si       0.61352    0.65371    0.17554    1.000
    N3662    N        0.62092    0.66611    0.21583    1.000
    Si3663   Si       0.58766    0.66173    0.24210    1.000
    N3664    N        0.62098    0.74181    0.22851    1.000
    N3665    N        0.62369    0.68845    0.15056    1.000
    Si3666   Si       0.60290    0.61136    0.30285    1.000
    N3667    N        0.60540    0.56833    0.30674    1.000
    Si3668   Si       0.62107    0.53816    0.27675    1.000
    Si3669   Si       0.59060    0.55657    0.34609    1.000
    N3670    N        0.58340    0.62464    0.26554    1.000
    N3671    N        0.59634    0.51470    0.35399    1.000
    N3672    N        0.59739    0.63669    0.34028    1.000
    Si3673   Si       0.62347    0.72088    0.26641    1.000
    N3674    N        0.59895    0.72890    0.36004    1.000
    N3675    N        0.58801    0.69411    0.26927    1.000
    N3676    N        0.63191    0.74839    0.29812    1.000
    Si3677   Si       0.60217    0.76146    0.32856    1.000
    N3678    N        0.60251    0.57994    0.38190    1.000
    Si3679   Si       0.60087    0.62360    0.38468    1.000
    Si3680   Si       0.59198    0.55741    0.41882    1.000
    Si3681   Si       0.60333    0.61805    0.46167    1.000
    N3682    N        0.62293    0.53852    0.44566    1.000
    Si3683   Si       0.60482    0.72370    0.41499    1.000
    Si3684   Si       0.57912    0.67664    0.45173    1.000
    N3685    N        0.60748    0.71030    0.46145    1.000
    N3686    N        0.59444    0.64978    0.49096    1.000
    N3687    N        0.60541    0.64798    0.42629    1.000
    Si3688   Si       0.60532    0.58542    0.54275    1.000
    Si3689   Si       0.61855    0.53907    0.57916    1.000
    N3690    N        0.60625    0.62776    0.55519    1.000
    N3691    N        0.60356    0.57515    0.50098    1.000
    Si3692   Si       0.59436    0.62961    0.59895    1.000
    N3693    N        0.63553    0.62617    0.61428    1.000
    N3694    N        0.58145    0.56315    0.57054    1.000
    Si3695   Si       0.60796    0.69885    0.57576    1.000
    N3696    N        0.59504    0.70289    0.53312    1.000
    N3697    N        0.61280    0.73423    0.59939    1.000
    Si3698   Si       0.58366    0.65700    0.53099    1.000
    Si3699   Si       0.62572    0.71395    0.49982    1.000
    N3700    N        0.57805    0.67224    0.59419    1.000
    N3701    N        0.62585    0.54233    0.62054    1.000
    N3702    N        0.61576    0.52431    0.69441    1.000
    Si3703   Si       0.61632    0.51431    0.65217    1.000
    N3704    N        0.59383    0.56836    0.74218    1.000
    Si3705   Si       0.58013    0.53448    0.71669    1.000
    N3706    N        0.61727    0.66933    0.66884    1.000
    Si3707   Si       0.61080    0.70693    0.68961    1.000
    N3708    N        0.58074    0.71068    0.72695    1.000
    N3709    N        0.58299    0.73119    0.66438    1.000
    Si3710   Si       0.61211    0.64125    0.70339    1.000
    Si3711   Si       0.61300    0.53911    0.82408    1.000
    N3712    N        0.62595    0.53086    0.86793    1.000
    N3713    N        0.58162    0.62967    0.84697    1.000
    N3714    N        0.58952    0.65585    0.77601    1.000
    Si3715   Si       0.61469    0.65735    0.85624    1.000
    N3716    N        0.59871    0.69792    0.85857    1.000
    Si3717   Si       0.58865    0.69822    0.76658    1.000
    Si3718   Si       0.62300    0.73328    0.86674    1.000
    N3719    N        0.63040    0.70179    0.77820    1.000
    Si3720   Si       0.63466    0.65565    0.77863    1.000
    N3721    N        0.62959    0.62028    0.96087    1.000
    Si3722   Si       0.60706    0.53967    0.96104    1.000
    N3723    N        0.58576    0.55783    0.92581    1.000
    Si3724   Si       0.62246    0.65622    0.93555    1.000
    N3725    N        0.61972    0.74164    0.97507    1.000
    Si3726   Si       0.58546    0.71163    0.97502    1.000
    N3727    N        0.58898    0.67826    0.94834    1.000
    N3728    N        0.63352    0.64494    0.89401    1.000
    Si3729   Si       0.60853    0.80367    0.03653    1.000
    Si3730   Si       0.59817    0.84489    0.09797    1.000
    Si3731   Si       0.63045    0.87994    0.04260    1.000
    N3732    N        0.58531    0.81398    0.06949    1.000
    N3733    N        0.63294    0.87125    0.08964    1.000
    N3734    N        0.63834    0.83452    0.03589    1.000
    N3735    N        0.61732    0.76192    0.04208    1.000
    N3736    N        0.59013    0.89791    0.04635    1.000
    N3737    N        0.60503    0.98740    0.04934    1.000
    Si3738   Si       0.58791    0.00164    0.08694    1.000
    Si3739   Si       0.58875    0.90974    0.00363    1.000
    N3740    N        0.61406    0.82200    0.13107    1.000
    Si3741   Si       0.61037    0.77877    0.21272    1.000
    Si3742   Si       0.58863    0.78648    0.14374    1.000
    N3743    N        0.59715    0.80592    0.24509    1.000
    N3744    N        0.58035    0.77128    0.18255    1.000
    N3745    N        0.61844    0.75975    0.13082    1.000
    Si3746   Si       0.62941    0.88847    0.20633    1.000
    N3747    N        0.61624    0.88620    0.16208    1.000
    N3748    N        0.60692    0.95502    0.15990    1.000
    Si3749   Si       0.58360    0.93232    0.24489    1.000
    Si3750   Si       0.60074    0.98805    0.19025    1.000
    N3751    N        0.58844    0.90029    0.21685    1.000
    N3752    N        0.60663    0.96711    0.22766    1.000
    N3753    N        0.60661    0.79757    0.34988    1.000
    Si3754   Si       0.59913    0.83425    0.32641    1.000
    N3755    N        0.59769    0.86950    0.35034    1.000
    N3756    N        0.63389    0.83840    0.29922    1.000
    Si3757   Si       0.63572    0.82374    0.25834    1.000
    N3758    N        0.59393    0.92725    0.28757    1.000
    Si3759   Si       0.63435    0.89030    0.36188    1.000
    Si3760   Si       0.63352    0.93998    0.29912    1.000
    N3761    N        0.62804    0.98111    0.31550    1.000
    Si3762   Si       0.63608    0.96462    0.35491    1.000
    N3763    N        0.63295    0.82069    0.41107    1.000
    Si3764   Si       0.60242    0.83608    0.44118    1.000
    Si3765   Si       0.62323    0.78422    0.38967    1.000
    N3766    N        0.62279    0.86404    0.46686    1.000
    N3767    N        0.58873    0.80943    0.47205    1.000
    Si3768   Si       0.59802    0.76498    0.46948    1.000
    N3769    N        0.60269    0.76531    0.42209    1.000
    N3770    N        0.63316    0.75793    0.49385    1.000
    N3771    N        0.57968    0.99446    0.49377    1.000
    Si3772   Si       0.59876    0.96084    0.47164    1.000
    N3773    N        0.62515    0.98956    0.45153    1.000
    Si3774   Si       0.59939    0.89627    0.49320    1.000
    Si3775   Si       0.58582    0.93796    0.40496    1.000
    Si3776   Si       0.60705    0.00702    0.41347    1.000
    N3777    N        0.61607    0.90644    0.40270    1.000
    N3778    N        0.62572    0.92699    0.46804    1.000
    N3779    N        0.60506    0.97362    0.38562    1.000
    Si3780   Si       0.63703    0.89603    0.43889    1.000
    Si3781   Si       0.60737    0.82346    0.61440    1.000
    N3782    N        0.59068    0.84379    0.58054    1.000
    N3783    N        0.62534    0.88659    0.52717    1.000
    N3784    N        0.63081    0.92787    0.58707    1.000
    N3785    N        0.63059    0.00424    0.55066    1.000
    Si3786   Si       0.58691    0.77419    0.66886    1.000
    N3787    N        0.60961    0.85172    0.64616    1.000
    N3788    N        0.62502    0.79171    0.68146    1.000
    N3789    N        0.58758    0.84119    0.70654    1.000
    Si3790   Si       0.62783    0.82761    0.70527    1.000
    N3791    N        0.58328    0.00803    0.67948    1.000
    N3792    N        0.62984    0.90873    0.69186    1.000
    Si3793   Si       0.58735    0.99695    0.72144    1.000
    N3794    N        0.60083    0.94636    0.65126    1.000
    Si3795   Si       0.59138    0.98695    0.64189    1.000
    N3796    N        0.58986    0.95329    0.72308    1.000
    Si3797   Si       0.58955    0.92862    0.68890    1.000
    Si3798   Si       0.63785    0.93820    0.62717    1.000
    N3799    N        0.62147    0.01065    0.74370    1.000
    N3800    N        0.62084    0.83065    0.81671    1.000
    Si3801   Si       0.61527    0.80712    0.85215    1.000
    Si3802   Si       0.60946    0.80923    0.78139    1.000
    N3803    N        0.59648    0.76639    0.86053    1.000
    Si3804   Si       0.62409    0.87492    0.80679    1.000
    N3805    N        0.60694    0.76734    0.79094    1.000
    N3806    N        0.58288    0.82824    0.87225    1.000
    N3807    N        0.60109    0.89008    0.84369    1.000
    N3808    N        0.60061    0.96705    0.79811    1.000
    N3809    N        0.59786    0.90241    0.78039    1.000
    Si3810   Si       0.60594    0.94073    0.76208    1.000
    N3811    N        0.63120    0.98159    0.86621    1.000
    Si3812   Si       0.63536    0.97923    0.82307    1.000
    Si3813   Si       0.58605    0.77582    0.97137    1.000
    N3814    N        0.59503    0.79221    0.93283    1.000
    Si3815   Si       0.63241    0.78296    0.91489    1.000
    N3816    N        0.58059    0.94236    0.88532    1.000
    Si3817   Si       0.59230    0.98339    0.88131    1.000
    N3818    N        0.59366    0.99737    0.92417    1.000
    Si3819   Si       0.61093    0.90944    0.88167    1.000
    N3820    N        0.59465    0.88505    0.91277    1.000
    N3821    N        0.62847    0.89491    0.99774    1.000
    N3822    N        0.65903    0.03152    0.03876    1.000
    Si3823   Si       0.67940    0.11183    0.01133    1.000
    N3824    N        0.64263    0.09011    0.00467    1.000
    Si3825   Si       0.64869    0.04703    0.99974    1.000
    N3826    N        0.69427    0.08040    0.08588    1.000
    N3827    N        0.67310    0.13581    0.11143    1.000
    N3828    N        0.67843    0.13890    0.04531    1.000
    Si3829   Si       0.64662    0.16936    0.03590    1.000
    N3830    N        0.65321    0.24646    0.09184    1.000
    N3831    N        0.66563    0.19295    0.00366    1.000
    Si3832   Si       0.68300    0.06925    0.12728    1.000
    N3833    N        0.68726    0.02750    0.12965    1.000
    N3834    N        0.66616    0.07101    0.21386    1.000
    Si3835   Si       0.68698    0.10345    0.19235    1.000
    Si3836   Si       0.64993    0.02857    0.21541    1.000
    N3837    N        0.64062    0.07677    0.13098    1.000
    N3838    N        0.66043    0.13660    0.17729    1.000
    N3839    N        0.65500    0.19908    0.21610    1.000
    Si3840   Si       0.67754    0.15966    0.14577    1.000
    N3841    N        0.65970    0.20185    0.14624    1.000
    Si3842   Si       0.63933    0.23749    0.13283    1.000
    Si3843   Si       0.68132    0.20616    0.18290    1.000
    N3844    N        0.67848    0.02659    0.30945    1.000
    N3845    N        0.67292    0.08017    0.35597    1.000
    Si3846   Si       0.65126    0.07594    0.25645    1.000
    N3847    N        0.68608    0.08907    0.28066    1.000
    Si3848   Si       0.69299    0.06838    0.31916    1.000
    Si3849   Si       0.63825    0.13497    0.35839    1.000
    N3850    N        0.66011    0.17405    0.28048    1.000
    Si3851   Si       0.65403    0.22939    0.34629    1.000
    N3852    N        0.67865    0.14843    0.34926    1.000
    N3853    N        0.68678    0.21790    0.31980    1.000
    Si3854   Si       0.66684    0.20972    0.25766    1.000
    N3855    N        0.64259    0.24549    0.25994    1.000
    Si3856   Si       0.69357    0.17341    0.31475    1.000
    Si3857   Si       0.67618    0.01459    0.39873    1.000
    N3858    N        0.67304    0.09867    0.42899    1.000
    Si3859   Si       0.64135    0.06976    0.43806    1.000
    N3860    N        0.65613    0.04523    0.47185    1.000
    Si3861   Si       0.69242    0.12638    0.45849    1.000
    N3862    N        0.63798    0.03904    0.40393    1.000
    Si3863   Si       0.69452    0.08498    0.39286    1.000
    N3864    N        0.66079    0.15012    0.47796    1.000
    N3865    N        0.66936    0.21592    0.38448    1.000
    N3866    N        0.64771    0.26068    0.49344    1.000
    N3867    N        0.65547    0.09683    0.52620    1.000
    N3868    N        0.66159    0.04164    0.60291    1.000
    Si3869   Si       0.67880    0.06823    0.50178    1.000
    N3870    N        0.69443    0.04028    0.53036    1.000
    N3871    N        0.66295    0.13439    0.61553    1.000
    N3872    N        0.67317    0.16660    0.54680    1.000
    Si3873   Si       0.64893    0.15993    0.58285    1.000
    N3874    N        0.68617    0.24584    0.55153    1.000
    Si3875   Si       0.65906    0.21865    0.61695    1.000
    Si3876   Si       0.64310    0.14459    0.52254    1.000
    N3877    N        0.69277    0.19907    0.60120    1.000
    Si3878   Si       0.69529    0.20380    0.55636    1.000
    N3879    N        0.68555    0.09208    0.67086    1.000
    Si3880   Si       0.65139    0.10133    0.73504    1.000
    N3881    N        0.65721    0.03244    0.68534    1.000
    Si3882   Si       0.64438    0.07401    0.67386    1.000
    N3883    N        0.69614    0.09492    0.73876    1.000
    Si3884   Si       0.69560    0.11762    0.63820    1.000
    N3885    N        0.67012    0.21795    0.72713    1.000
    N3886    N        0.64393    0.14304    0.74181    1.000
    N3887    N        0.65600    0.20334    0.65682    1.000
    Si3888   Si       0.64163    0.22028    0.69249    1.000
    Si3889   Si       0.66910    0.05149    0.83214    1.000
    Si3890   Si       0.68669    0.06246    0.76771    1.000
    N3891    N        0.65044    0.08650    0.85090    1.000
    N3892    N        0.64431    0.02223    0.81200    1.000
    N3893    N        0.64287    0.07219    0.76622    1.000
    N3894    N        0.69105    0.02360    0.75019    1.000
    N3895    N        0.68110    0.03738    0.87315    1.000
    Si3896   Si       0.65002    0.23618    0.76012    1.000
    N3897    N        0.66545    0.15542    0.85752    1.000
    Si3898   Si       0.65061    0.16047    0.78167    1.000
    N3899    N        0.69002    0.14510    0.79433    1.000
    N3900    N        0.68885    0.08689    0.92009    1.000
    Si3901   Si       0.66044    0.07261    0.89172    1.000
    N3902    N        0.68046    0.03254    0.97177    1.000
    Si3903   Si       0.66032    0.23468    0.99344    1.000
    Si3904   Si       0.65032    0.18592    0.88277    1.000
    Si3905   Si       0.66542    0.24800    0.91370    1.000
    N3906    N        0.68118    0.21511    0.89015    1.000
    N3907    N        0.64977    0.23338    0.95212    1.000
    N3908    N        0.69695    0.13400    0.97783    1.000
    Si3909   Si       0.65844    0.32860    0.07349    1.000
    N3910    N        0.64688    0.32467    0.11466    1.000
    N3911    N        0.66692    0.37198    0.07237    1.000
    N3912    N        0.68746    0.29760    0.06346    1.000
    Si3913   Si       0.69335    0.26289    0.08994    1.000
    N3914    N        0.63652    0.26023    0.02067    1.000
    N3915    N        0.67438    0.31389    0.00039    1.000
    N3916    N        0.66348    0.38741    0.00584    1.000
    Si3917   Si       0.69406    0.39446    0.04254    1.000
    Si3918   Si       0.68360    0.39485    0.10748    1.000
    N3919    N        0.67020    0.43704    0.10263    1.000
    N3920    N        0.67979    0.49845    0.06601    1.000
    Si3921   Si       0.64026    0.50969    0.06778    1.000
    N3922    N        0.69683    0.43819    0.03553    1.000
    Si3923   Si       0.67124    0.30577    0.14596    1.000
    N3924    N        0.64015    0.27628    0.15480    1.000
    N3925    N        0.68813    0.34078    0.16724    1.000
    Si3926   Si       0.67582    0.38304    0.17259    1.000
    N3927    N        0.68296    0.39144    0.21536    1.000
    N3928    N        0.64189    0.44050    0.23909    1.000
    N3929    N        0.66004    0.45056    0.17372    1.000
    Si3930   Si       0.64361    0.43492    0.13719    1.000
    N3931    N        0.64893    0.39076    0.13911    1.000
    Si3932   Si       0.64842    0.39579    0.24166    1.000
    N3933    N        0.66259    0.33338    0.32029    1.000
    Si3934   Si       0.65016    0.30413    0.34990    1.000
    Si3935   Si       0.66893    0.34035    0.27567    1.000
    Si3936   Si       0.65038    0.27935    0.28555    1.000
    Si3937   Si       0.65874    0.37657    0.32474    1.000
    N3938    N        0.65440    0.38159    0.27998    1.000
    N3939    N        0.69302    0.28309    0.28289    1.000
    N3940    N        0.68635    0.28794    0.36962    1.000
    N3941    N        0.65014    0.45617    0.34684    1.000
    Si3942   Si       0.68759    0.44439    0.32216    1.000
    N3943    N        0.68767    0.40472    0.33546    1.000
    N3944    N        0.68933    0.47135    0.28735    1.000
    Si3945   Si       0.66981    0.47202    0.24836    1.000
    Si3946   Si       0.68442    0.28481    0.41544    1.000
    N3947    N        0.65013    0.35656    0.43804    1.000
    N3948    N        0.64350    0.28708    0.42841    1.000
    Si3949   Si       0.69161    0.35525    0.42494    1.000
    Si3950   Si       0.66828    0.47868    0.37978    1.000
    N3951    N        0.65614    0.41512    0.48081    1.000
    N3952    N        0.63780    0.47687    0.40825    1.000
    N3953    N        0.68875    0.49880    0.45307    1.000
    Si3954   Si       0.64647    0.49955    0.44614    1.000
    N3955    N        0.67056    0.31306    0.55766    1.000
    Si3956   Si       0.68444    0.27918    0.58128    1.000
    Si3957   Si       0.68827    0.26423    0.51148    1.000
    N3958    N        0.66240    0.26283    0.61682    1.000
    Si3959   Si       0.66648    0.49636    0.55874    1.000
    N3960    N        0.67390    0.47463    0.52283    1.000
    N3961    N        0.68563    0.46847    0.58801    1.000
    Si3962   Si       0.64331    0.44974    0.50237    1.000
    Si3963   Si       0.65791    0.45558    0.62044    1.000
    N3964    N        0.66337    0.38231    0.62777    1.000
    Si3965   Si       0.65805    0.28033    0.65569    1.000
    Si3966   Si       0.66969    0.35104    0.66293    1.000
    N3967    N        0.67762    0.37231    0.70011    1.000
    N3968    N        0.64777    0.31163    0.72387    1.000
    N3969    N        0.64455    0.32180    0.64844    1.000
    N3970    N        0.66871    0.44450    0.71416    1.000
    N3971    N        0.68470    0.50752    0.69058    1.000
    N3972    N        0.68813    0.43984    0.64919    1.000
    N3973    N        0.64217    0.48112    0.65160    1.000
    Si3974   Si       0.67354    0.46675    0.67911    1.000
    Si3975   Si       0.65260    0.40480    0.71843    1.000
    N3976    N        0.64722    0.49507    0.74865    1.000
    Si3977   Si       0.66101    0.31217    0.76427    1.000
    N3978    N        0.67445    0.27042    0.77128    1.000
    N3979    N        0.66585    0.37115    0.81985    1.000
    N3980    N        0.68421    0.31871    0.86707    1.000
    Si3981   Si       0.69311    0.35889    0.85044    1.000
    N3982    N        0.64501    0.39350    0.76000    1.000
    Si3983   Si       0.67597    0.40473    0.79081    1.000
    N3984    N        0.66490    0.45068    0.78799    1.000
    N3985    N        0.66469    0.47130    0.85724    1.000
    Si3986   Si       0.68725    0.46330    0.82183    1.000
    Si3987   Si       0.68109    0.46648    0.74890    1.000
    N3988    N        0.65196    0.33673    0.92226    1.000
    Si3989   Si       0.64502    0.31646    0.88553    1.000
    Si3990   Si       0.68925    0.35443    0.99246    1.000
    N3991    N        0.63744    0.27391    0.89094    1.000
    Si3992   Si       0.68299    0.47777    0.89701    1.000
    Si3993   Si       0.64805    0.46912    0.96082    1.000
    N3994    N        0.65293    0.45454    0.91889    1.000
    N3995    N        0.68680    0.47729    0.97783    1.000
    N3996    N        0.66664    0.60172    0.01774    1.000
    Si3997   Si       0.66327    0.55847    0.01132    1.000
    N3998    N        0.66539    0.71200    0.02086    1.000
    Si3999   Si       0.64701    0.68136    0.04982    1.000
    N4000    N        0.68586    0.66226    0.05155    1.000
    Si4001   Si       0.64386    0.74846    0.01197    1.000
    N4002    N        0.67256    0.64751    0.11797    1.000
    Si4003   Si       0.65719    0.61015    0.13594    1.000
    Si4004   Si       0.67149    0.54861    0.16946    1.000
    N4005    N        0.68644    0.57549    0.13875    1.000
    N4006    N        0.68029    0.57148    0.20605    1.000
    Si4007   Si       0.68852    0.61415    0.19981    1.000
    N4008    N        0.65213    0.62674    0.17538    1.000
    Si4009   Si       0.67995    0.54425    0.23860    1.000
    N4010    N        0.69038    0.51071    0.16679    1.000
    N4011    N        0.65461    0.51026    0.23002    1.000
    Si4012   Si       0.66140    0.67250    0.22632    1.000
    Si4013   Si       0.66746    0.67739    0.14961    1.000
    N4014    N        0.68092    0.68872    0.19083    1.000
    N4015    N        0.68602    0.63768    0.23474    1.000
    N4016    N        0.67423    0.71567    0.12838    1.000
    N4017    N        0.66238    0.55440    0.27939    1.000
    Si4018   Si       0.67361    0.58647    0.30462    1.000
    N4019    N        0.64589    0.62113    0.30417    1.000
    N4020    N        0.68291    0.58063    0.34641    1.000
    N4021    N        0.66435    0.51413    0.35460    1.000
    Si4022   Si       0.67826    0.69709    0.30071    1.000
    N4023    N        0.65148    0.68976    0.33373    1.000
    N4024    N        0.65795    0.69475    0.26248    1.000
    Si4025   Si       0.64266    0.71747    0.36342    1.000
    Si4026   Si       0.64040    0.64810    0.33760    1.000
    Si4027   Si       0.68561    0.61375    0.37429    1.000
    N4028    N        0.69527    0.60191    0.41423    1.000
    Si4029   Si       0.68167    0.61704    0.45167    1.000
    N4030    N        0.64392    0.60254    0.46276    1.000
    Si4031   Si       0.63920    0.56347    0.47898    1.000
    N4032    N        0.64809    0.63569    0.37940    1.000
    N4033    N        0.63925    0.70076    0.40166    1.000
    N4034    N        0.67568    0.65936    0.44925    1.000
    Si4035   Si       0.64615    0.66258    0.41742    1.000
    Si4036   Si       0.69645    0.68200    0.48174    1.000
    Si4037   Si       0.68390    0.57262    0.54316    1.000
    N4038    N        0.68348    0.61986    0.55273    1.000
    N4039    N        0.69263    0.53325    0.56976    1.000
    N4040    N        0.67586    0.55755    0.49950    1.000
    N4041    N        0.64213    0.56722    0.55518    1.000
    Si4042   Si       0.64934    0.63486    0.57251    1.000
    Si4043   Si       0.67754    0.70382    0.55064    1.000
    N4044    N        0.67638    0.74109    0.57234    1.000
    N4045    N        0.66529    0.69849    0.50900    1.000
    N4046    N        0.64680    0.67732    0.56979    1.000
    Si4047   Si       0.67519    0.58870    0.70254    1.000
    N4048    N        0.66302    0.56117    0.73224    1.000
    Si4049   Si       0.65302    0.52221    0.71650    1.000
    N4050    N        0.64020    0.61102    0.68667    1.000
    Si4051   Si       0.68109    0.65890    0.70930    1.000
    Si4052   Si       0.64759    0.64193    0.65269    1.000
    Si4053   Si       0.65893    0.71089    0.74270    1.000
    N4054    N        0.68718    0.65769    0.66584    1.000
    N4055    N        0.64095    0.66529    0.72810    1.000
    N4056    N        0.64531    0.72660    0.70414    1.000
    N4057    N        0.64767    0.61532    0.77012    1.000
    N4058    N        0.64401    0.55382    0.79848    1.000
    Si4059   Si       0.68735    0.54444    0.80672    1.000
    Si4060   Si       0.69289    0.61229    0.76983    1.000
    N4061    N        0.69263    0.56115    0.84714    1.000
    Si4062   Si       0.63285    0.57477    0.76222    1.000
    N4063    N        0.66628    0.74989    0.76307    1.000
    N4064    N        0.65387    0.74193    0.83659    1.000
    Si4065   Si       0.68481    0.65167    0.83221    1.000
    N4066    N        0.64351    0.65242    0.82229    1.000
    Si4067   Si       0.64072    0.74213    0.79586    1.000
    Si4068   Si       0.69371    0.73240    0.84647    1.000
    N4069    N        0.69688    0.68972    0.85036    1.000
    N4070    N        0.65593    0.58110    0.90616    1.000
    N4071    N        0.69181    0.62024    0.93786    1.000
    N4072    N        0.64377    0.55616    0.97320    1.000
    Si4073   Si       0.65706    0.58847    0.94781    1.000
    Si4074   Si       0.67053    0.62053    0.89817    1.000
    Si4075   Si       0.66556    0.54725    0.88164    1.000
    N4076    N        0.69379    0.52187    0.90417    1.000
    N4077    N        0.65363    0.68041    0.95191    1.000
    Si4078   Si       0.64997    0.72364    0.94619    1.000
    N4079    N        0.69016    0.73757    0.95111    1.000
    Si4080   Si       0.69385    0.66275    0.95128    1.000
    N4081    N        0.63527    0.73993    0.90853    1.000
    Si4082   Si       0.67823    0.81836    0.02290    1.000
    N4083    N        0.67119    0.77963    0.00571    1.000
    Si4084   Si       0.67929    0.89173    0.08816    1.000
    N4085    N        0.67049    0.97538    0.07924    1.000
    N4086    N        0.66704    0.90331    0.04756    1.000
    Si4087   Si       0.64831    0.98925    0.04363    1.000
    Si4088   Si       0.68398    0.92958    0.01781    1.000
    N4089    N        0.66535    0.96863    0.00712    1.000
    Si4090   Si       0.66253    0.99382    0.11661    1.000
    N4091    N        0.67208    0.84647    0.15544    1.000
    Si4092   Si       0.66893    0.82864    0.19653    1.000
    Si4093   Si       0.64623    0.79119    0.14313    1.000
    N4094    N        0.68966    0.78656    0.13301    1.000
    N4095    N        0.64533    0.85148    0.22442    1.000
    N4096    N        0.64580    0.79205    0.18706    1.000
    Si4097   Si       0.64429    0.86992    0.13257    1.000
    Si4098   Si       0.64842    0.95536    0.22922    1.000
    N4099    N        0.67071    0.99000    0.21500    1.000
    N4100    N        0.67440    0.96657    0.14919    1.000
    Si4101   Si       0.64497    0.93309    0.15851    1.000
    N4102    N        0.66502    0.90963    0.12668    1.000
    N4103    N        0.65456    0.92265    0.19946    1.000
    Si4104   Si       0.67237    0.83871    0.32141    1.000
    N4105    N        0.66203    0.85758    0.35944    1.000
    N4106    N        0.66629    0.79229    0.26067    1.000
    Si4107   Si       0.67157    0.76913    0.29898    1.000
    N4108    N        0.68995    0.79732    0.32711    1.000
    Si4109   Si       0.69281    0.77875    0.36876    1.000
    N4110    N        0.66420    0.94101    0.26679    1.000
    N4111    N        0.67139    0.98895    0.36557    1.000
    Si4112   Si       0.69499    0.99245    0.33019    1.000
    N4113    N        0.64282    0.92493    0.33886    1.000
    Si4114   Si       0.66928    0.84163    0.39828    1.000
    N4115    N        0.67275    0.87586    0.42629    1.000
    N4116    N        0.68735    0.87051    0.49250    1.000
    N4117    N        0.65468    0.75723    0.37405    1.000
    Si4118   Si       0.66312    0.00104    0.46658    1.000
    N4119    N        0.68824    0.99065    0.43237    1.000
    N4120    N        0.67174    0.86675    0.57022    1.000
    Si4121   Si       0.66629    0.82198    0.56561    1.000
    N4122    N        0.65580    0.81642    0.52192    1.000
    N4123    N        0.64034    0.80068    0.59583    1.000
    Si4124   Si       0.67020    0.78299    0.50002    1.000
    Si4125   Si       0.64810    0.85553    0.50300    1.000
    Si4126   Si       0.65034    0.75865    0.60309    1.000
    N4127    N        0.68668    0.92518    0.54445    1.000
    N4128    N        0.68619    0.98727    0.57429    1.000
    Si4129   Si       0.64883    0.90344    0.55745    1.000
    Si4130   Si       0.64684    0.00087    0.59219    1.000
    N4131    N        0.67873    0.97989    0.50194    1.000
    Si4132   Si       0.67204    0.00328    0.53574    1.000
    N4133    N        0.68901    0.78343    0.71117    1.000
    N4134    N        0.66136    0.85331    0.69257    1.000
    Si4135   Si       0.64065    0.87817    0.66291    1.000
    Si4136   Si       0.65978    0.76447    0.68285    1.000
    N4137    N        0.66746    0.75559    0.64258    1.000
    N4138    N        0.63497    0.81307    0.74628    1.000
    Si4139   Si       0.65993    0.93431    0.71026    1.000
    Si4140   Si       0.66094    0.00941    0.72382    1.000
    N4141    N        0.66390    0.90293    0.63593    1.000
    Si4142   Si       0.67547    0.00079    0.66119    1.000
    N4143    N        0.65191    0.97932    0.63068    1.000
    N4144    N        0.66872    0.97619    0.69745    1.000
    Si4145   Si       0.67250    0.79053    0.75092    1.000
    N4146    N        0.68952    0.81023    0.78601    1.000
    N4147    N        0.66310    0.88344    0.79221    1.000
    Si4148   Si       0.69553    0.85375    0.78751    1.000
    N4149    N        0.66627    0.95030    0.81801    1.000
    Si4150   Si       0.67214    0.92469    0.78295    1.000
    N4151    N        0.64908    0.94164    0.75207    1.000
    N4152    N        0.66535    0.86461    0.93242    1.000
    N4153    N        0.66556    0.79806    0.93967    1.000
    Si4154   Si       0.68141    0.82686    0.90704    1.000
    N4155    N        0.64693    0.80695    0.88142    1.000
    Si4156   Si       0.66216    0.87728    0.97316    1.000
    Si4157   Si       0.69118    0.77910    0.96714    1.000
    N4158    N        0.68773    0.84566    0.99047    1.000
    Si4159   Si       0.66006    0.96282    0.89484    1.000
    N4160    N        0.65118    0.92122    0.89020    1.000
    Si4161   Si       0.67844    0.89080    0.90173    1.000
    N4162    N        0.66238    0.98293    0.93349    1.000
    Si4163   Si       0.68269    0.98907    0.97161    1.000
    N4164    N        0.70550    0.08088    0.02464    1.000
    N4165    N        0.72193    0.01036    0.05129    1.000
    Si4166   Si       0.70074    0.12478    0.08033    1.000
    Si4167   Si       0.74446    0.08062    0.00593    1.000
    Si4168   Si       0.69569    0.04740    0.05522    1.000
    N4169    N        0.74227    0.13659    0.07759    1.000
    Si4170   Si       0.72699    0.22336    0.02797    1.000
    N4171    N        0.72197    0.23857    0.06964    1.000
    N4172    N        0.72937    0.18101    0.01880    1.000
    N4173    N        0.70280    0.25092    0.00243    1.000
    N4174    N        0.71654    0.11310    0.22108    1.000
    N4175    N        0.70892    0.08788    0.15718    1.000
    Si4176   Si       0.75140    0.07494    0.15694    1.000
    Si4177   Si       0.72818    0.01194    0.13718    1.000
    N4178    N        0.75394    0.04640    0.12566    1.000
    Si4179   Si       0.74877    0.19901    0.17363    1.000
    N4180    N        0.71205    0.17741    0.16772    1.000
    Si4181   Si       0.73032    0.24031    0.22648    1.000
    N4182    N        0.70708    0.24113    0.18945    1.000
    N4183    N        0.73516    0.07112    0.32218    1.000
    Si4184   Si       0.71760    0.11238    0.26534    1.000
    N4185    N        0.71982    0.14727    0.28934    1.000
    Si4186   Si       0.70992    0.24378    0.29386    1.000
    N4187    N        0.73768    0.17438    0.34249    1.000
    N4188    N        0.70860    0.22251    0.25799    1.000
    Si4189   Si       0.71509    0.15202    0.37391    1.000
    Si4190   Si       0.74380    0.02384    0.38550    1.000
    N4191    N        0.72752    0.11168    0.38242    1.000
    N4192    N        0.70804    0.04373    0.39804    1.000
    N4193    N        0.70881    0.09423    0.48458    1.000
    Si4194   Si       0.73835    0.24487    0.45912    1.000
    Si4195   Si       0.75270    0.17118    0.43846    1.000
    Si4196   Si       0.70862    0.21681    0.40255    1.000
    N4197    N        0.72018    0.17548    0.40830    1.000
    N4198    N        0.73691    0.23393    0.37629    1.000
    N4199    N        0.73221    0.14610    0.46742    1.000
    N4200    N        0.70422    0.24959    0.43048    1.000
    Si4201   Si       0.73506    0.05147    0.54373    1.000
    N4202    N        0.74193    0.04154    0.58546    1.000
    N4203    N        0.71575    0.09086    0.61131    1.000
    N4204    N        0.74261    0.09434    0.54123    1.000
    Si4205   Si       0.70553    0.04768    0.61030    1.000
    Si4206   Si       0.74880    0.10424    0.58406    1.000
    Si4207   Si       0.74666    0.11586    0.49915    1.000
    N4208    N        0.73785    0.19810    0.54656    1.000
    N4209    N        0.74617    0.14776    0.58765    1.000
    Si4210   Si       0.74964    0.23776    0.52870    1.000
    Si4211   Si       0.72671    0.17543    0.61638    1.000
    N4212    N        0.72016    0.23782    0.49718    1.000
    N4213    N        0.71246    0.02071    0.64413    1.000
    Si4214   Si       0.71360    0.07987    0.70191    1.000
    N4215    N        0.73108    0.04021    0.70532    1.000
    Si4216   Si       0.74988    0.02570    0.66846    1.000
    N4217    N        0.75030    0.10448    0.69839    1.000
    Si4218   Si       0.73195    0.01182    0.73813    1.000
    N4219    N        0.71900    0.15115    0.65297    1.000
    Si4220   Si       0.73918    0.14740    0.69378    1.000
    N4221    N        0.72076    0.15980    0.73047    1.000
    Si4222   Si       0.71318    0.20322    0.72897    1.000
    N4223    N        0.73795    0.22061    0.69532    1.000
    Si4224   Si       0.73830    0.08963    0.81832    1.000
    N4225    N        0.73245    0.11986    0.84932    1.000
    N4226    N        0.74897    0.11449    0.78210    1.000
    Si4227   Si       0.71427    0.12954    0.76033    1.000
    N4228    N        0.74987    0.01828    0.86190    1.000
    N4229    N        0.70255    0.06553    0.80788    1.000
    N4230    N        0.72062    0.19216    0.83830    1.000
    N4231    N        0.72377    0.22192    0.76822    1.000
    Si4232   Si       0.74133    0.20495    0.80257    1.000
    Si4233   Si       0.70345    0.15215    0.83580    1.000
    Si4234   Si       0.72058    0.22124    0.87078    1.000
    Si4235   Si       0.71344    0.11632    0.94343    1.000
    N4236    N        0.73681    0.08265    0.96220    1.000
    N4237    N        0.72523    0.02122    0.92404    1.000
    Si4238   Si       0.70689    0.05484    0.94411    1.000
    Si4239   Si       0.71261    0.01200    0.88367    1.000
    N4240    N        0.75452    0.20933    0.89529    1.000
    N4241    N        0.73450    0.14291    0.91705    1.000
    N4242    N        0.71730    0.20410    0.95482    1.000
    Si4243   Si       0.71890    0.24865    0.95824    1.000
    Si4244   Si       0.70041    0.17640    0.98564    1.000
    Si4245   Si       0.74766    0.18286    0.92861    1.000
    N4246    N        0.72018    0.36809    0.02280    1.000
    N4247    N        0.74091    0.30598    0.01877    1.000
    Si4248   Si       0.70159    0.28860    0.02360    1.000
    N4249    N        0.72124    0.39492    0.08319    1.000
    N4250    N        0.73501    0.46109    0.09413    1.000
    N4251    N        0.73744    0.49255    0.02290    1.000
    Si4252   Si       0.71707    0.46052    0.00136    1.000
    Si4253   Si       0.69426    0.45711    0.07411    1.000
    Si4254   Si       0.73566    0.42801    0.12304    1.000
    N4255    N        0.70318    0.27981    0.12943    1.000
    Si4256   Si       0.72918    0.35730    0.16029    1.000
    Si4257   Si       0.71716    0.37268    0.23147    1.000
    N4258    N        0.74542    0.27955    0.23521    1.000
    N4259    N        0.74781    0.36896    0.19867    1.000
    Si4260   Si       0.72956    0.26413    0.15916    1.000
    N4261    N        0.75183    0.34319    0.12537    1.000
    Si4262   Si       0.69896    0.46985    0.17925    1.000
    N4263    N        0.71124    0.39598    0.14566    1.000
    N4264    N        0.70530    0.47016    0.22300    1.000
    N4265    N        0.73434    0.45617    0.15967    1.000
    Si4266   Si       0.73585    0.49730    0.23683    1.000
    Si4267   Si       0.72636    0.30336    0.26378    1.000
    Si4268   Si       0.72894    0.27203    0.35765    1.000
    N4269    N        0.75035    0.36919    0.34113    1.000
    N4270    N        0.74324    0.26032    0.31596    1.000
    N4271    N        0.70076    0.33627    0.24755    1.000
    N4272    N        0.73270    0.38888    0.26931    1.000
    Si4273   Si       0.72058    0.39391    0.36052    1.000
    Si4274   Si       0.72768    0.48764    0.30440    1.000
    N4275    N        0.72970    0.45528    0.33343    1.000
    Si4276   Si       0.74706    0.34345    0.37601    1.000
    Si4277   Si       0.73021    0.31585    0.47095    1.000
    N4278    N        0.70595    0.35800    0.38390    1.000
    N4279    N        0.70766    0.31646    0.43451    1.000
    N4280    N        0.71275    0.38837    0.44560    1.000
    N4281    N        0.72036    0.44332    0.48551    1.000
    Si4282   Si       0.74768    0.45845    0.37360    1.000
    Si4283   Si       0.70295    0.48363    0.49211    1.000
    N4284    N        0.71144    0.47866    0.38932    1.000
    N4285    N        0.74198    0.41751    0.38891    1.000
    Si4286   Si       0.69843    0.40493    0.48391    1.000
    Si4287   Si       0.72163    0.50789    0.42438    1.000
    Si4288   Si       0.75063    0.39455    0.42635    1.000
    N4289    N        0.72426    0.28940    0.59878    1.000
    N4290    N        0.73415    0.34071    0.55577    1.000
    N4291    N        0.70367    0.30403    0.50337    1.000
    N4292    N        0.69891    0.37782    0.51969    1.000
    Si4293   Si       0.75449    0.30729    0.57375    1.000
    Si4294   Si       0.69682    0.33583    0.53088    1.000
    Si4295   Si       0.72929    0.38416    0.55130    1.000
    N4296    N        0.71733    0.40516    0.58757    1.000
    Si4297   Si       0.72236    0.44991    0.58466    1.000
    N4298    N        0.74930    0.46126    0.55278    1.000
    N4299    N        0.75300    0.45691    0.61817    1.000
    Si4300   Si       0.70522    0.36600    0.73682    1.000
    Si4301   Si       0.72201    0.29561    0.64057    1.000
    Si4302   Si       0.73132    0.26212    0.69397    1.000
    N4303    N        0.70976    0.33656    0.65012    1.000
    N4304    N        0.73626    0.28183    0.73267    1.000
    N4305    N        0.73945    0.35224    0.71299    1.000
    Si4306   Si       0.74015    0.36001    0.67204    1.000
    N4307    N        0.69579    0.27434    0.67179    1.000
    N4308    N        0.72409    0.47141    0.74837    1.000
    Si4309   Si       0.70159    0.40288    0.62928    1.000
    N4310    N        0.73792    0.39746    0.65168    1.000
    Si4311   Si       0.75297    0.50123    0.73402    1.000
    N4312    N        0.73276    0.35394    0.82826    1.000
    Si4313   Si       0.72946    0.32929    0.79340    1.000
    N4314    N        0.73459    0.28838    0.79963    1.000
    Si4315   Si       0.71710    0.26482    0.76832    1.000
    N4316    N        0.69705    0.33414    0.76551    1.000
    N4317    N        0.72364    0.26153    0.85713    1.000
    Si4318   Si       0.74057    0.43256    0.75943    1.000
    N4319    N        0.70960    0.40309    0.76058    1.000
    N4320    N        0.70820    0.50245    0.80852    1.000
    N4321    N        0.70371    0.42430    0.83054    1.000
    Si4322   Si       0.72255    0.41769    0.87004    1.000
    Si4323   Si       0.75071    0.49091    0.80267    1.000
    Si4324   Si       0.71252    0.29259    0.88715    1.000
    N4325    N        0.71026    0.36569    0.95585    1.000
    N4326    N        0.73187    0.32679    0.90795    1.000
    N4327    N        0.69921    0.27045    0.92488    1.000
    Si4328   Si       0.69600    0.35284    0.91895    1.000
    N4329    N        0.69931    0.38402    0.88659    1.000
    N4330    N        0.72050    0.45674    0.89151    1.000
    Si4331   Si       0.74641    0.38823    0.96588    1.000
    N4332    N        0.73579    0.42657    0.98252    1.000
    N4333    N        0.73280    0.53358    0.08845    1.000
    Si4334   Si       0.71746    0.56970    0.10890    1.000
    N4335    N        0.70957    0.60129    0.08055    1.000
    N4336    N        0.74153    0.60505    0.01228    1.000
    N4337    N        0.70502    0.55348    0.02381    1.000
    Si4338   Si       0.71456    0.52000    0.04970    1.000
    Si4339   Si       0.70678    0.59940    0.03682    1.000
    Si4340   Si       0.74139    0.56394    0.99824    1.000
    Si4341   Si       0.70154    0.64374    0.08871    1.000
    Si4342   Si       0.74347    0.70841    0.08727    1.000
    N4343    N        0.73861    0.70940    0.04259    1.000
    N4344    N        0.73635    0.66648    0.09607    1.000
    N4345    N        0.72534    0.74711    0.09406    1.000
    Si4346   Si       0.70328    0.69192    0.02347    1.000
    N4347    N        0.72814    0.62555    0.18702    1.000
    N4348    N        0.73213    0.73165    0.16061    1.000
    Si4349   Si       0.70464    0.74628    0.13313    1.000
    Si4350   Si       0.75274    0.65037    0.21377    1.000
    N4351    N        0.74599    0.69223    0.21637    1.000
    N4352    N        0.70623    0.74782    0.22507    1.000
    Si4353   Si       0.71494    0.71575    0.19839    1.000
    N4354    N        0.71295    0.59443    0.28890    1.000
    Si4355   Si       0.73211    0.55385    0.29039    1.000
    N4356    N        0.72359    0.52741    0.32319    1.000
    Si4357   Si       0.69914    0.54175    0.35600    1.000
    Si4358   Si       0.71135    0.63284    0.26940    1.000
    N4359    N        0.71972    0.53375    0.25412    1.000
    N4360    N        0.75085    0.63029    0.25322    1.000
    N4361    N        0.72215    0.64148    0.36979    1.000
    Si4362   Si       0.73431    0.73326    0.32829    1.000
    Si4363   Si       0.73817    0.65674    0.33091    1.000
    N4364    N        0.70858    0.66420    0.29963    1.000
    N4365    N        0.72877    0.75406    0.36623    1.000
    N4366    N        0.69762    0.73452    0.30527    1.000
    Si4367   Si       0.72054    0.55587    0.49074    1.000
    N4368    N        0.71801    0.59806    0.46929    1.000
    Si4369   Si       0.72632    0.57448    0.42513    1.000
    N4370    N        0.74131    0.54274    0.45125    1.000
    N4371    N        0.71819    0.54135    0.39518    1.000
    Si4372   Si       0.74497    0.63042    0.47721    1.000
    Si4373   Si       0.72605    0.75309    0.48084    1.000
    N4374    N        0.72095    0.71269    0.46349    1.000
    N4375    N        0.74824    0.65430    0.44036    1.000
    Si4376   Si       0.75401    0.63654    0.40048    1.000
    N4377    N        0.72873    0.57280    0.53063    1.000
    N4378    N        0.72356    0.58309    0.60868    1.000
    Si4379   Si       0.72572    0.54185    0.59634    1.000
    N4380    N        0.73068    0.51197    0.50782    1.000
    Si4381   Si       0.71608    0.64629    0.54549    1.000
    N4382    N        0.71562    0.68649    0.56545    1.000
    Si4383   Si       0.74302    0.70507    0.59426    1.000
    N4384    N        0.74633    0.74674    0.57934    1.000
    N4385    N        0.72366    0.65741    0.50455    1.000
    N4386    N        0.72701    0.52200    0.63616    1.000
    Si4387   Si       0.73440    0.59522    0.64782    1.000
    Si4388   Si       0.71626    0.53388    0.67705    1.000
    N4389    N        0.74656    0.53513    0.70790    1.000
    N4390    N        0.70415    0.57865    0.67326    1.000
    N4391    N        0.69600    0.62240    0.72720    1.000
    N4392    N        0.74840    0.67272    0.69641    1.000
    N4393    N        0.72836    0.70845    0.63731    1.000
    Si4394   Si       0.74307    0.74807    0.65270    1.000
    Si4395   Si       0.72679    0.67153    0.65919    1.000
    N4396    N        0.69679    0.69567    0.72797    1.000
    N4397    N        0.74061    0.74070    0.69732    1.000
    N4398    N        0.74571    0.63618    0.64004    1.000
    Si4399   Si       0.73782    0.70522    0.72291    1.000
    Si4400   Si       0.72536    0.59329    0.85864    1.000
    N4401    N        0.70685    0.57477    0.78367    1.000
    N4402    N        0.70006    0.62961    0.87030    1.000
    N4403    N        0.70909    0.64077    0.79823    1.000
    N4404    N        0.72137    0.74256    0.81481    1.000
    Si4405   Si       0.75190    0.64324    0.80581    1.000
    Si4406   Si       0.75531    0.71934    0.80325    1.000
    N4407    N        0.72686    0.56173    0.95541    1.000
    Si4408   Si       0.72964    0.54232    0.91679    1.000
    Si4409   Si       0.73087    0.60102    0.93681    1.000
    N4410    N        0.73713    0.57957    0.89788    1.000
    N4411    N        0.71048    0.74922    0.88509    1.000
    N4412    N        0.71271    0.68520    0.91893    1.000
    Si4413   Si       0.75133    0.64318    0.99134    1.000
    N4414    N        0.71493    0.66557    0.98891    1.000
    Si4415   Si       0.72365    0.66906    0.88051    1.000
    Si4416   Si       0.71844    0.72748    0.92113    1.000
    Si4417   Si       0.73288    0.84518    0.06828    1.000
    Si4418   Si       0.73232    0.77984    0.06915    1.000
    N4419    N        0.73196    0.87549    0.03357    1.000
    N4420    N        0.71076    0.81079    0.04967    1.000
    N4421    N        0.70018    0.85393    0.09726    1.000
    N4422    N        0.73040    0.97642    0.11073    1.000
    N4423    N        0.72263    0.94536    0.03362    1.000
    Si4424   Si       0.71280    0.96757    0.07085    1.000
    N4425    N        0.71368    0.92157    0.08855    1.000
    Si4426   Si       0.74292    0.91232    0.05837    1.000
    Si4427   Si       0.75044    0.95611    0.00203    1.000
    N4428    N        0.70739    0.82150    0.21058    1.000
    N4429    N        0.74310    0.83899    0.15120    1.000
    Si4430   Si       0.70522    0.82823    0.13420    1.000
    Si4431   Si       0.74401    0.83960    0.19562    1.000
    Si4432   Si       0.70451    0.78774    0.23865    1.000
    Si4433   Si       0.70263    0.96949    0.18787    1.000
    N4434    N        0.73319    0.99762    0.17596    1.000
    N4435    N        0.72722    0.95876    0.22636    1.000
    Si4436   Si       0.70560    0.94028    0.12742    1.000
    N4437    N        0.72505    0.93070    0.16370    1.000
    N4438    N        0.73353    0.79301    0.26951    1.000
    N4439    N        0.70861    0.85236    0.30432    1.000
    Si4440   Si       0.72795    0.81347    0.30622    1.000
    Si4441   Si       0.74249    0.87782    0.30087    1.000
    N4442    N        0.73008    0.90947    0.27072    1.000
    N4443    N        0.71692    0.97207    0.29622    1.000
    Si4444   Si       0.70969    0.94602    0.26315    1.000
    N4445    N        0.73439    0.00336    0.34851    1.000
    N4446    N        0.75096    0.89807    0.33635    1.000
    Si4447   Si       0.75385    0.99166    0.31010    1.000
    N4448    N        0.73540    0.84640    0.44619    1.000
    Si4449   Si       0.72023    0.80822    0.43581    1.000
    N4450    N        0.75495    0.78298    0.42758    1.000
    N4451    N        0.69939    0.80997    0.39792    1.000
    N4452    N        0.69701    0.78440    0.46517    1.000
    Si4453   Si       0.70732    0.88131    0.45242    1.000
    N4454    N        0.74108    0.96874    0.47865    1.000
    N4455    N        0.72400    0.91866    0.43919    1.000
    Si4456   Si       0.72586    0.96776    0.43704    1.000
    Si4457   Si       0.73482    0.83555    0.57918    1.000
    N4458    N        0.73860    0.86249    0.54571    1.000
    N4459    N        0.70582    0.80447    0.57034    1.000
    Si4460   Si       0.71207    0.76371    0.55936    1.000
    N4461    N        0.72309    0.85301    0.61610    1.000
    N4462    N        0.70575    0.75966    0.51842    1.000
    Si4463   Si       0.70627    0.88735    0.53021    1.000
    N4464    N        0.73426    0.91097    0.50568    1.000
    N4465    N        0.73905    0.96585    0.54352    1.000
    N4466    N        0.72134    0.92212    0.60210    1.000
    Si4467   Si       0.70918    0.94968    0.51110    1.000
    Si4468   Si       0.70802    0.95058    0.57350    1.000
    Si4469   Si       0.69476    0.88686    0.60834    1.000
    N4470    N        0.72882    0.79146    0.65720    1.000
    Si4471   Si       0.74199    0.83358    0.65118    1.000
    Si4472   Si       0.73059    0.78214    0.70096    1.000
    N4473    N        0.73432    0.86231    0.68352    1.000
    Si4474   Si       0.70007    0.86855    0.71004    1.000
    N4475    N        0.69720    0.91308    0.71575    1.000
    N4476    N        0.74305    0.97320    0.72254    1.000
    Si4477   Si       0.72843    0.93414    0.73721    1.000
    Si4478   Si       0.71914    0.78619    0.80750    1.000
    N4479    N        0.72500    0.80405    0.84801    1.000
    N4480    N        0.72569    0.86709    0.81667    1.000
    Si4481   Si       0.73134    0.84651    0.85485    1.000
    N4482    N        0.71676    0.85285    0.74714    1.000
    N4483    N        0.73749    0.93259    0.84373    1.000
    Si4484   Si       0.73924    0.90803    0.80837    1.000
    N4485    N        0.71556    0.92812    0.77814    1.000
    Si4486   Si       0.70485    0.96242    0.83205    1.000
    N4487    N        0.71836    0.99493    0.80859    1.000
    N4488    N        0.74837    0.85862    0.96122    1.000
    Si4489   Si       0.75042    0.81755    0.95078    1.000
    Si4490   Si       0.73714    0.78226    0.88310    1.000
    N4491    N        0.72695    0.81070    0.91458    1.000
    N4492    N        0.73476    0.78651    0.97647    1.000
    Si4493   Si       0.72270    0.87322    0.99250    1.000
    N4494    N        0.69494    0.85821    0.87722    1.000
    N4495    N        0.69362    0.90772    0.97981    1.000
    Si4496   Si       0.75321    0.99232    0.94137    1.000
    N4497    N        0.69771    0.97257    0.87458    1.000
    N4498    N        0.71384    0.91522    0.91407    1.000
    Si4499   Si       0.73110    0.94309    0.88543    1.000
    Si4500   Si       0.72166    0.92850    0.95348    1.000
    N4501    N        0.72331    0.97186    0.96929    1.000
    Si4502   Si       0.79152    0.04609    0.10508    1.000
    N4503    N        0.79539    0.02291    0.06950    1.000
    N4504    N        0.79946    0.08756    0.09266    1.000
    Si4505   Si       0.77463    0.12239    0.10327    1.000
    N4506    N        0.77040    0.11415    0.01795    1.000
    N4507    N        0.76573    0.04369    0.01192    1.000
    Si4508   Si       0.76351    0.01247    0.04053    1.000
    Si4509   Si       0.81266    0.11108    0.00521    1.000
    N4510    N        0.76719    0.24199    0.02589    1.000
    N4511    N        0.79495    0.17123    0.03346    1.000
    N4512    N        0.79072    0.21675    0.08747    1.000
    Si4513   Si       0.76671    0.24907    0.07096    1.000
    N4514    N        0.80694    0.15242    0.10127    1.000
    Si4515   Si       0.75620    0.15123    0.03563    1.000
    Si4516   Si       0.75814    0.09770    0.22078    1.000
    N4517    N        0.77130    0.06368    0.19512    1.000
    N4518    N        0.77054    0.11452    0.14582    1.000
    Si4519   Si       0.80689    0.03533    0.20147    1.000
    N4520    N        0.78242    0.13418    0.21173    1.000
    Si4521   Si       0.79490    0.21917    0.13148    1.000
    N4522    N        0.76069    0.21189    0.21373    1.000
    Si4523   Si       0.79846    0.22398    0.22877    1.000
    N4524    N        0.78789    0.18507    0.16048    1.000
    Si4525   Si       0.80792    0.14682    0.24448    1.000
    Si4526   Si       0.79424    0.14207    0.17125    1.000
    N4527    N        0.75516    0.23259    0.14292    1.000
    Si4528   Si       0.76532    0.06458    0.29452    1.000
    N4529    N        0.76857    0.02223    0.28370    1.000
    N4530    N        0.77438    0.12012    0.33772    1.000
    N4531    N        0.80275    0.06772    0.31568    1.000
    Si4532   Si       0.80498    0.01614    0.26200    1.000
    N4533    N        0.75710    0.09207    0.26329    1.000
    Si4534   Si       0.75302    0.08854    0.35697    1.000
    Si4535   Si       0.80944    0.05032    0.35696    1.000
    N4536    N        0.79938    0.23420    0.27117    1.000
    N4537    N        0.79026    0.16000    0.28278    1.000
    N4538    N        0.79354    0.21053    0.32654    1.000
    Si4539   Si       0.76434    0.20415    0.35912    1.000
    Si4540   Si       0.78549    0.25122    0.30887    1.000
    Si4541   Si       0.75870    0.15350    0.31251    1.000
    Si4542   Si       0.81457    0.19674    0.28575    1.000
    N4543    N        0.77296    0.05429    0.37826    1.000
    N4544    N        0.78016    0.09044    0.48164    1.000
    Si4545   Si       0.80681    0.11488    0.45630    1.000
    N4546    N        0.79065    0.14420    0.42752    1.000
    Si4547   Si       0.79988    0.22491    0.42297    1.000
    N4548    N        0.79687    0.19861    0.38879    1.000
    N4549    N        0.76275    0.21367    0.44117    1.000
    N4550    N        0.78794    0.08816    0.58796    1.000
    Si4551   Si       0.77887    0.05003    0.60873    1.000
    N4552    N        0.76079    0.03179    0.51574    1.000
    Si4553   Si       0.79393    0.05417    0.49988    1.000
    N4554    N        0.81053    0.02279    0.61262    1.000
    Si4555   Si       0.76515    0.16560    0.55222    1.000
    Si4556   Si       0.79696    0.19932    0.60612    1.000
    N4557    N        0.77739    0.14826    0.51697    1.000
    N4558    N        0.79949    0.18794    0.56479    1.000
    N4559    N        0.78776    0.22745    0.50911    1.000
    N4560    N        0.79848    0.05401    0.71517    1.000
    Si4561   Si       0.78721    0.08283    0.68593    1.000
    N4562    N        0.77430    0.05876    0.65161    1.000
    N4563    N        0.77794    0.16662    0.69253    1.000
    N4564    N        0.81229    0.21823    0.66286    1.000
    N4565    N        0.76141    0.19883    0.62965    1.000
    Si4566   Si       0.77185    0.20426    0.67164    1.000
    N4567    N        0.77171    0.06139    0.82494    1.000
    Si4568   Si       0.80107    0.03577    0.75423    1.000
    N4569    N        0.76185    0.02606    0.76684    1.000
    Si4570   Si       0.78115    0.05081    0.86913    1.000
    Si4571   Si       0.75600    0.01786    0.81591    1.000
    Si4572   Si       0.81049    0.07904    0.81622    1.000
    N4573    N        0.81211    0.12292    0.81310    1.000
    Si4574   Si       0.78608    0.13762    0.78248    1.000
    N4575    N        0.77077    0.23311    0.81937    1.000
    N4576    N        0.77450    0.17723    0.79364    1.000
    Si4577   Si       0.80422    0.20362    0.81877    1.000
    N4578    N        0.77632    0.08753    0.89040    1.000
    Si4579   Si       0.80195    0.03525    0.99059    1.000
    N4580    N        0.78963    0.01150    0.95190    1.000
    Si4581   Si       0.75702    0.12580    0.88388    1.000
    N4582    N        0.81420    0.07558    0.97781    1.000
    N4583    N        0.79608    0.14563    0.87906    1.000
    Si4584   Si       0.78964    0.23359    0.89016    1.000
    N4585    N        0.77699    0.18097    0.96059    1.000
    Si4586   Si       0.80807    0.17714    0.99081    1.000
    N4587    N        0.81152    0.24067    0.92679    1.000
    N4588    N        0.77615    0.35000    0.06244    1.000
    N4589    N        0.77330    0.28750    0.08781    1.000
    Si4590   Si       0.80524    0.31908    0.08004    1.000
    Si4591   Si       0.75687    0.37536    0.09355    1.000
    Si4592   Si       0.76944    0.27834    0.00266    1.000
    N4593    N        0.80754    0.30000    0.00418    1.000
    Si4594   Si       0.75656    0.34509    0.02528    1.000
    Si4595   Si       0.77914    0.50296    0.02022    1.000
    N4596    N        0.78746    0.50151    0.06402    1.000
    N4597    N        0.77487    0.40779    0.11786    1.000
    Si4598   Si       0.75769    0.49820    0.09581    1.000
    N4599    N        0.80135    0.47033    0.99892    1.000
    N4600    N        0.80937    0.26296    0.21024    1.000
    Si4601   Si       0.77111    0.30628    0.13092    1.000
    Si4602   Si       0.79101    0.37118    0.20473    1.000
    N4603    N        0.79419    0.33172    0.22644    1.000
    Si4604   Si       0.77895    0.29441    0.20862    1.000
    N4605    N        0.75803    0.29387    0.17011    1.000
    N4606    N        0.76262    0.50183    0.20331    1.000
    Si4607   Si       0.77249    0.47725    0.16791    1.000
    N4608    N        0.77606    0.50705    0.13415    1.000
    Si4609   Si       0.81044    0.41221    0.14274    1.000
    N4610    N        0.80239    0.44632    0.16904    1.000
    N4611    N        0.80934    0.40475    0.22710    1.000
    Si4612   Si       0.79935    0.33281    0.27041    1.000
    N4613    N        0.79623    0.37316    0.28508    1.000
    N4614    N        0.75853    0.32395    0.28477    1.000
    Si4615   Si       0.75531    0.36749    0.29950    1.000
    N4616    N        0.75644    0.30173    0.37112    1.000
    N4617    N        0.81122    0.27641    0.33422    1.000
    Si4618   Si       0.79964    0.47834    0.27114    1.000
    N4619    N        0.80672    0.44021    0.29358    1.000
    N4620    N        0.79511    0.46784    0.36734    1.000
    N4621    N        0.75695    0.48207    0.27253    1.000
    Si4622   Si       0.80069    0.29457    0.37256    1.000
    N4623    N        0.76774    0.35837    0.41008    1.000
    N4624    N        0.80223    0.26756    0.40982    1.000
    Si4625   Si       0.80905    0.35283    0.41559    1.000
    Si4626   Si       0.79949    0.28499    0.44917    1.000
    N4627    N        0.75966    0.28130    0.46459    1.000
    Si4628   Si       0.77387    0.38411    0.49323    1.000
    N4629    N        0.75618    0.34807    0.48333    1.000
    N4630    N        0.75538    0.48217    0.43851    1.000
    N4631    N        0.77478    0.41159    0.45751    1.000
    Si4632   Si       0.75843    0.45050    0.46759    1.000
    N4633    N        0.78956    0.32549    0.59196    1.000
    Si4634   Si       0.80643    0.27113    0.52126    1.000
    N4635    N        0.76545    0.27577    0.54379    1.000
    Si4636   Si       0.79637    0.35688    0.62159    1.000
    Si4637   Si       0.78393    0.43898    0.53934    1.000
    N4638    N        0.79534    0.39974    0.60959    1.000
    N4639    N        0.76385    0.40050    0.53157    1.000
    Si4640   Si       0.76162    0.50185    0.62199    1.000
    Si4641   Si       0.75708    0.50409    0.54194    1.000
    N4642    N        0.78680    0.45969    0.49864    1.000
    N4643    N        0.75781    0.28004    0.66287    1.000
    N4644    N        0.79626    0.31519    0.71457    1.000
    Si4645   Si       0.79155    0.30493    0.67129    1.000
    N4646    N        0.77796    0.34457    0.65715    1.000
    Si4647   Si       0.75793    0.32043    0.73365    1.000
    N4648    N        0.79805    0.44255    0.66833    1.000
    Si4649   Si       0.77197    0.42303    0.63656    1.000
    N4650    N        0.79711    0.51042    0.64338    1.000
    Si4651   Si       0.80399    0.48436    0.67716    1.000
    N4652    N        0.77379    0.40826    0.74319    1.000
    N4653    N        0.78219    0.47717    0.71584    1.000
    Si4654   Si       0.79878    0.43021    0.71219    1.000
    N4655    N        0.79459    0.29408    0.82532    1.000
    Si4656   Si       0.76859    0.36887    0.84505    1.000
    N4657    N        0.76416    0.34223    0.76958    1.000
    Si4658   Si       0.79051    0.37769    0.77087    1.000
    Si4659   Si       0.80559    0.30403    0.86635    1.000
    Si4660   Si       0.75800    0.27158    0.83223    1.000
    N4661    N        0.78802    0.34374    0.87427    1.000
    N4662    N        0.79142    0.38851    0.81243    1.000
    Si4663   Si       0.78507    0.42890    0.82534    1.000
    N4664    N        0.76344    0.41111    0.86286    1.000
    N4665    N        0.76917    0.49019    0.84459    1.000
    N4666    N        0.75942    0.44742    0.79543    1.000
    Si4667   Si       0.81466    0.49203    0.84166    1.000
    N4668    N        0.77868    0.27566    0.88722    1.000
    N4669    N        0.79748    0.32061    0.93760    1.000
    Si4670   Si       0.77087    0.34514    0.91457    1.000
    Si4671   Si       0.78860    0.27786    0.93120    1.000
    N4672    N        0.77568    0.36247    0.98898    1.000
    N4673    N        0.75832    0.26801    0.96023    1.000
    Si4674   Si       0.80632    0.33659    0.97666    1.000
    N4675    N        0.76850    0.38613    0.92721    1.000
    Si4676   Si       0.75858    0.47956    0.88694    1.000
    N4677    N        0.78253    0.45644    0.91711    1.000
    Si4678   Si       0.78733    0.41592    0.89950    1.000
    Si4679   Si       0.80418    0.46619    0.95481    1.000
    N4680    N        0.80866    0.56055    0.09779    1.000
    N4681    N        0.78023    0.54317    0.99754    1.000
    N4682    N        0.80180    0.64021    0.08024    1.000
    N4683    N        0.80546    0.70676    0.05287    1.000
    Si4684   Si       0.77817    0.66184    0.10978    1.000
    Si4685   Si       0.77449    0.72977    0.03209    1.000
    N4686    N        0.77883    0.70866    0.11367    1.000
    N4687    N        0.78568    0.66508    0.00743    1.000
    Si4688   Si       0.81081    0.66467    0.04437    1.000
    N4689    N        0.78918    0.59500    0.19861    1.000
    Si4690   Si       0.78842    0.54888    0.13348    1.000
    Si4691   Si       0.76182    0.60842    0.16710    1.000
    N4692    N        0.75465    0.57691    0.13542    1.000
    N4693    N        0.80163    0.71009    0.17581    1.000
    Si4694   Si       0.78880    0.70659    0.21936    1.000
    Si4695   Si       0.80699    0.66820    0.17060    1.000
    N4696    N        0.77867    0.64456    0.14870    1.000
    N4697    N        0.79651    0.65917    0.21286    1.000
    N4698    N        0.77899    0.75157    0.22511    1.000
    Si4699   Si       0.77395    0.73275    0.15035    1.000
    N4700    N        0.77272    0.56519    0.28757    1.000
    Si4701   Si       0.77311    0.60836    0.28305    1.000
    Si4702   Si       0.80418    0.62797    0.34827    1.000
    N4703    N        0.76969    0.62855    0.32038    1.000
    N4704    N        0.81429    0.58878    0.36299    1.000
    N4705    N        0.76723    0.75269    0.30589    1.000
    N4706    N        0.75557    0.69544    0.33997    1.000
    Si4707   Si       0.77770    0.51953    0.44243    1.000
    Si4708   Si       0.79795    0.57258    0.39911    1.000
    N4709    N        0.78896    0.52970    0.40093    1.000
    N4710    N        0.76353    0.59487    0.40999    1.000
    N4711    N        0.77097    0.75877    0.48773    1.000
    Si4712   Si       0.78579    0.69459    0.37132    1.000
    N4713    N        0.76918    0.71402    0.40776    1.000
    N4714    N        0.78976    0.65230    0.38020    1.000
    N4715    N        0.79397    0.69486    0.47141    1.000
    Si4716   Si       0.75777    0.69640    0.44653    1.000
    Si4717   Si       0.80855    0.73617    0.48404    1.000
    Si4718   Si       0.76063    0.75539    0.39542    1.000
    N4719    N        0.80031    0.57512    0.55081    1.000
    N4720    N        0.80210    0.61376    0.60438    1.000
    Si4721   Si       0.76521    0.59603    0.53509    1.000
    Si4722   Si       0.80225    0.53551    0.56923    1.000
    N4723    N        0.76254    0.52322    0.58174    1.000
    N4724    N        0.79983    0.50967    0.53569    1.000
    N4725    N        0.75273    0.62846    0.56294    1.000
    N4726    N        0.77908    0.61310    0.49784    1.000
    Si4727   Si       0.76785    0.63894    0.60202    1.000
    N4728    N        0.78126    0.68200    0.60026    1.000
    N4729    N        0.77227    0.57873    0.66133    1.000
    Si4730   Si       0.77652    0.56757    0.70414    1.000
    N4731    N        0.77948    0.60851    0.71819    1.000
    Si4732   Si       0.80826    0.59796    0.64476    1.000
    N4733    N        0.81039    0.55298    0.72963    1.000
    N4734    N        0.80952    0.67924    0.72155    1.000
    Si4735   Si       0.78747    0.64813    0.69957    1.000
    Si4736   Si       0.80035    0.60693    0.82337    1.000
    N4737    N        0.80455    0.57711    0.78841    1.000
    Si4738   Si       0.80551    0.60569    0.75382    1.000
    N4739    N        0.77254    0.51455    0.77435    1.000
    Si4740   Si       0.80990    0.53739    0.77029    1.000
    N4741    N        0.75951    0.60960    0.83500    1.000
    N4742    N        0.78573    0.63840    0.77946    1.000
    N4743    N        0.75817    0.70707    0.76136    1.000
    Si4744   Si       0.79441    0.68039    0.76600    1.000
    N4745    N        0.78835    0.74547    0.81569    1.000
    Si4746   Si       0.79249    0.67716    0.85423    1.000
    N4747    N        0.76382    0.68177    0.82310    1.000
    Si4748   Si       0.80508    0.75291    0.85513    1.000
    Si4749   Si       0.80514    0.52523    0.91573    1.000
    N4750    N        0.76271    0.51685    0.91005    1.000
    N4751    N        0.75884    0.63180    0.94908    1.000
    N4752    N        0.80685    0.56293    0.93466    1.000
    Si4753   Si       0.81474    0.56208    0.97871    1.000
    N4754    N        0.80160    0.68782    0.94061    1.000
    Si4755   Si       0.78701    0.65097    0.92313    1.000
    N4756    N        0.76560    0.66069    0.88594    1.000
    N4757    N        0.75970    0.74152    0.92869    1.000
    N4758    N        0.80392    0.71234    0.87523    1.000
    Si4759   Si       0.80598    0.69308    0.98182    1.000
    Si4760   Si       0.79723    0.72478    0.91802    1.000
    N4761    N        0.78381    0.73101    0.99000    1.000
    Si4762   Si       0.79584    0.79939    0.06341    1.000
    N4763    N        0.76757    0.76993    0.04592    1.000
    N4764    N        0.76043    0.81544    0.08677    1.000
    N4765    N        0.76117    0.87798    0.08629    1.000
    Si4766   Si       0.77305    0.84965    0.12125    1.000
    N4767    N        0.81557    0.77048    0.09079    1.000
    Si4768   Si       0.79673    0.90559    0.09485    1.000
    N4769    N        0.78293    0.97907    0.01672    1.000
    N4770    N        0.78268    0.93195    0.06083    1.000
    N4771    N        0.79037    0.77329    0.15549    1.000
    Si4772   Si       0.79559    0.78042    0.19689    1.000
    N4773    N        0.77799    0.81772    0.21173    1.000
    N4774    N        0.75440    0.87941    0.20439    1.000
    Si4775   Si       0.76046    0.90823    0.17394    1.000
    N4776    N        0.78530    0.94009    0.19084    1.000
    N4777    N        0.78780    0.88929    0.14378    1.000
    N4778    N        0.78841    0.00202    0.22394    1.000
    Si4779   Si       0.76226    0.97493    0.20419    1.000
    Si4780   Si       0.76229    0.89448    0.24378    1.000
    N4781    N        0.80243    0.91251    0.24687    1.000
    Si4782   Si       0.78976    0.78323    0.33158    1.000
    N4783    N        0.77528    0.86214    0.27224    1.000
    Si4784   Si       0.76876    0.76814    0.26487    1.000
    N4785    N        0.80624    0.79007    0.26434    1.000
    N4786    N        0.76284    0.81552    0.33073    1.000
    Si4787   Si       0.79572    0.83046    0.24883    1.000
    N4788    N        0.79507    0.76482    0.37107    1.000
    N4789    N        0.78504    0.96417    0.32492    1.000
    Si4790   Si       0.78488    0.92316    0.33965    1.000
    N4791    N        0.79466    0.86831    0.41159    1.000
    Si4792   Si       0.77843    0.85421    0.44964    1.000
    Si4793   Si       0.78787    0.78341    0.45417    1.000
    N4794    N        0.80057    0.82234    0.46797    1.000
    N4795    N        0.78188    0.88448    0.48055    1.000
    Si4796   Si       0.79243    0.96362    0.40782    1.000
    N4797    N        0.75565    0.98944    0.40997    1.000
    N4798    N        0.79142    0.94404    0.44855    1.000
    N4799    N        0.79426    0.92923    0.38051    1.000
    Si4800   Si       0.75916    0.92236    0.46946    1.000
    N4801    N        0.77140    0.81765    0.59109    1.000
    Si4802   Si       0.77723    0.77446    0.59277    1.000
    Si4803   Si       0.79523    0.84724    0.61210    1.000
    N4804    N        0.80414    0.85548    0.53504    1.000
    Si4805   Si       0.76930    0.88392    0.52253    1.000
    N4806    N        0.79019    0.88901    0.60470    1.000
    N4807    N        0.79892    0.98189    0.52974    1.000
    N4808    N        0.77993    0.95922    0.60176    1.000
    N4809    N        0.79021    0.91557    0.54457    1.000
    Si4810   Si       0.77975    0.95372    0.55842    1.000
    Si4811   Si       0.75975    0.98944    0.51342    1.000
    Si4812   Si       0.76309    0.92166    0.61977    1.000
    N4813    N        0.78534    0.83673    0.65265    1.000
    N4814    N        0.76471    0.80079    0.71985    1.000
    Si4815   Si       0.80544    0.77947    0.71981    1.000
    N4816    N        0.81191    0.87682    0.69830    1.000
    N4817    N        0.77990    0.75862    0.63425    1.000
    Si4818   Si       0.79981    0.98517    0.63130    1.000
    N4819    N        0.77424    0.99002    0.66463    1.000
    Si4820   Si       0.77498    0.95542    0.69422    1.000
    Si4821   Si       0.76950    0.88800    0.69127    1.000
    N4822    N        0.76413    0.92437    0.66464    1.000
    N4823    N        0.76361    0.91063    0.72828    1.000
    N4824    N        0.81562    0.94587    0.70603    1.000
    Si4825   Si       0.79578    0.78357    0.79533    1.000
    Si4826   Si       0.79715    0.81646    0.86571    1.000
    N4827    N        0.78999    0.85302    0.75828    1.000
    N4828    N        0.77282    0.85311    0.86902    1.000
    Si4829   Si       0.75304    0.82872    0.75209    1.000
    N4830    N        0.75615    0.80171    0.78774    1.000
    N4831    N        0.81755    0.80315    0.82818    1.000
    N4832    N        0.77966    0.91518    0.79826    1.000
    Si4833   Si       0.79206    0.94448    0.82775    1.000
    N4834    N        0.78842    0.98939    0.81808    1.000
    Si4835   Si       0.79134    0.89807    0.76012    1.000
    N4836    N        0.80616    0.92834    0.86661    1.000
    N4837    N        0.78046    0.77956    0.87685    1.000
    N4838    N        0.79261    0.80370    0.95885    1.000
    Si4839   Si       0.76903    0.76291    0.96588    1.000
    Si4840   Si       0.80130    0.88590    0.87884    1.000
    N4841    N        0.81234    0.86710    0.98952    1.000
    Si4842   Si       0.78380    0.88712    0.96187    1.000
    N4843    N        0.79972    0.89740    0.92118    1.000
    N4844    N        0.76088    0.96183    0.91194    1.000
    Si4845   Si       0.79946    0.94128    0.90989    1.000
    N4846    N        0.75742    0.91837    0.97794    1.000
    Si4847   Si       0.83927    0.09261    0.07498    1.000
    N4848    N        0.84403    0.11071    0.03616    1.000
    N4849    N        0.85798    0.05189    0.07316    1.000
    Si4850   Si       0.83685    0.01897    0.05481    1.000
    N4851    N        0.83734    0.02022    0.01107    1.000
    N4852    N        0.86406    0.11492    0.10309    1.000
    Si4853   Si       0.87272    0.12550    0.00745    1.000
    N4854    N        0.85529    0.19435    0.05967    1.000
    Si4855   Si       0.81436    0.18503    0.06982    1.000
    Si4856   Si       0.87069    0.20089    0.01640    1.000
    N4857    N        0.81946    0.03204    0.13291    1.000
    Si4858   Si       0.85761    0.01949    0.14582    1.000
    Si4859   Si       0.86139    0.12410    0.20166    1.000
    Si4860   Si       0.86668    0.05850    0.23496    1.000
    N4861    N        0.82460    0.05071    0.24113    1.000
    N4862    N        0.84527    0.01482    0.18897    1.000
    N4863    N        0.84568    0.12604    0.24168    1.000
    N4864    N        0.83501    0.13068    0.16595    1.000
    Si4865   Si       0.86714    0.19389    0.22291    1.000
    N4866    N        0.82716    0.18916    0.23666    1.000
    Si4867   Si       0.84108    0.14462    0.12583    1.000
    N4868    N        0.86502    0.22586    0.19286    1.000
    N4869    N        0.86607    0.18131    0.12539    1.000
    Si4870   Si       0.86789    0.21735    0.15009    1.000
    N4871    N        0.83184    0.24058    0.13811    1.000
    N4872    N        0.84855    0.12008    0.30818    1.000
    Si4873   Si       0.81630    0.10842    0.33552    1.000
    N4874    N        0.83109    0.01182    0.35609    1.000
    N4875    N        0.83096    0.08525    0.36863    1.000
    Si4876   Si       0.86365    0.15506    0.32906    1.000
    Si4877   Si       0.82807    0.20020    0.35414    1.000
    N4878    N        0.85248    0.19349    0.31005    1.000
    N4879    N        0.83125    0.15525    0.35758    1.000
    N4880    N        0.85960    0.22204    0.37216    1.000
    Si4881   Si       0.84913    0.04678    0.45312    1.000
    N4882    N        0.83418    0.08758    0.43905    1.000
    Si4883   Si       0.85657    0.08106    0.40265    1.000
    N4884    N        0.85934    0.03839    0.41170    1.000
    N4885    N        0.82184    0.02864    0.47771    1.000
    Si4886   Si       0.81982    0.16068    0.39961    1.000
    N4887    N        0.86030    0.15332    0.41562    1.000
    N4888    N        0.83308    0.14026    0.47795    1.000
    N4889    N        0.82976    0.20570    0.44861    1.000
    Si4890   Si       0.82568    0.22381    0.48785    1.000
    Si4891   Si       0.85512    0.17130    0.45611    1.000
    N4892    N        0.85531    0.07340    0.59374    1.000
    Si4893   Si       0.82609    0.08996    0.56700    1.000
    N4894    N        0.82374    0.06864    0.52958    1.000
    Si4895   Si       0.86434    0.05529    0.52077    1.000
    N4896    N        0.86278    0.01194    0.53205    1.000
    N4897    N        0.83711    0.12955    0.55169    1.000
    Si4898   Si       0.83483    0.21102    0.55364    1.000
    N4899    N        0.82996    0.22778    0.60189    1.000
    N4900    N        0.84420    0.19200    0.51342    1.000
    N4901    N        0.84210    0.25250    0.53940    1.000
    Si4902   Si       0.82078    0.15214    0.51689    1.000
    Si4903   Si       0.87147    0.14894    0.56429    1.000
    N4904    N        0.87374    0.19214    0.57072    1.000
    Si4905   Si       0.84883    0.04122    0.62137    1.000
    Si4906   Si       0.85925    0.09300    0.68464    1.000
    N4907    N        0.85259    0.05618    0.66193    1.000
    N4908    N        0.82030    0.11256    0.68347    1.000
    N4909    N        0.86908    0.08685    0.72780    1.000
    N4910    N        0.86753    0.17807    0.63220    1.000
    Si4911   Si       0.83160    0.24934    0.63871    1.000
    Si4912   Si       0.81592    0.15081    0.70790    1.000
    N4913    N        0.85144    0.17487    0.70390    1.000
    Si4914   Si       0.85174    0.19916    0.66768    1.000
    N4915    N        0.81367    0.13532    0.74850    1.000
    N4916    N        0.83221    0.07831    0.85438    1.000
    Si4917   Si       0.84160    0.10082    0.75727    1.000
    Si4918   Si       0.84830    0.04129    0.86642    1.000
    N4919    N        0.81980    0.06930    0.77635    1.000
    N4920    N        0.85499    0.01570    0.83168    1.000
    N4921    N        0.87174    0.12100    0.78597    1.000
    Si4922   Si       0.85131    0.14326    0.81749    1.000
    N4923    N        0.84036    0.18399    0.80516    1.000
    N4924    N        0.85997    0.14930    0.86125    1.000
    Si4925   Si       0.84867    0.24404    0.85435    1.000
    N4926    N        0.84866    0.24877    0.81177    1.000
    N4927    N        0.81727    0.21319    0.86318    1.000
    Si4928   Si       0.86728    0.21658    0.79061    1.000
    Si4929   Si       0.84649    0.07788    0.94896    1.000
    N4930    N        0.84135    0.10804    0.91770    1.000
    N4931    N        0.85885    0.03369    0.94338    1.000
    Si4932   Si       0.81616    0.10757    0.88091    1.000
    N4933    N        0.81312    0.02659    0.88841    1.000
    Si4934   Si       0.82477    0.00969    0.92651    1.000
    Si4935   Si       0.86058    0.14167    0.94148    1.000
    Si4936   Si       0.82920    0.17353    0.88314    1.000
    N4937    N        0.84391    0.17954    0.92410    1.000
    Si4938   Si       0.84207    0.21762    0.94654    1.000
    N4939    N        0.83465    0.14144    0.98140    1.000
    N4940    N        0.83664    0.20907    0.98874    1.000
    N4941    N        0.84473    0.31815    0.06056    1.000
    Si4942   Si       0.84718    0.31475    0.01766    1.000
    N4943    N        0.84610    0.50099    0.11909    1.000
    Si4944   Si       0.86619    0.46200    0.11271    1.000
    N4945    N        0.86864    0.48322    0.00133    1.000
    N4946    N        0.87097    0.45822    0.06937    1.000
    N4947    N        0.86833    0.41557    0.01653    1.000
    Si4948   Si       0.84067    0.44829    0.00019    1.000
    N4949    N        0.86498    0.35484    0.12079    1.000
    N4950    N        0.81074    0.37410    0.16676    1.000
    N4951    N        0.81432    0.31465    0.12477    1.000
    Si4952   Si       0.85246    0.26668    0.20264    1.000
    Si4953   Si       0.84313    0.28175    0.13347    1.000
    Si4954   Si       0.84161    0.34207    0.15780    1.000
    N4955    N        0.85565    0.29927    0.17144    1.000
    N4956    N        0.82186    0.47355    0.23079    1.000
    Si4957   Si       0.82729    0.43981    0.20570    1.000
    N4958    N        0.87019    0.50431    0.19110    1.000
    Si4959   Si       0.84885    0.50861    0.22917    1.000
    N4960    N        0.86737    0.42924    0.19520    1.000
    N4961    N        0.84898    0.42479    0.12632    1.000
    N4962    N        0.83823    0.31935    0.28523    1.000
    Si4963   Si       0.85982    0.34305    0.36112    1.000
    Si4964   Si       0.84930    0.28846    0.31643    1.000
    Si4965   Si       0.87064    0.34797    0.28472    1.000
    N4966    N        0.87529    0.26163    0.29272    1.000
    Si4967   Si       0.87223    0.40201    0.31972    1.000
    N4968    N        0.85992    0.39245    0.27848    1.000
    N4969    N        0.85770    0.46733    0.32752    1.000
    N4970    N        0.83917    0.40806    0.34905    1.000
    Si4971   Si       0.81981    0.40564    0.27001    1.000
    Si4972   Si       0.82078    0.44598    0.33636    1.000
    Si4973   Si       0.85947    0.50653    0.30906    1.000
    N4974    N        0.82099    0.33371    0.37731    1.000
    Si4975   Si       0.83049    0.33296    0.48698    1.000
    N4976    N        0.81946    0.37883    0.49118    1.000
    N4977    N        0.82501    0.26624    0.47722    1.000
    N4978    N        0.81958    0.32445    0.44765    1.000
    Si4979   Si       0.81900    0.40800    0.45807    1.000
    Si4980   Si       0.85385    0.40003    0.38988    1.000
    Si4981   Si       0.81799    0.50353    0.38102    1.000
    N4982    N        0.84859    0.50162    0.41341    1.000
    Si4983   Si       0.86819    0.46566    0.42644    1.000
    N4984    N        0.84218    0.44502    0.45668    1.000
    N4985    N        0.82673    0.38998    0.42012    1.000
    N4986    N        0.85392    0.30750    0.58262    1.000
    N4987    N        0.83574    0.37080    0.55773    1.000
    Si4988   Si       0.82205    0.33089    0.56224    1.000
    Si4989   Si       0.85583    0.37833    0.51902    1.000
    N4990    N        0.81208    0.31404    0.52279    1.000
    N4991    N        0.87131    0.34338    0.50129    1.000
    Si4992   Si       0.87196    0.27445    0.55905    1.000
    Si4993   Si       0.83173    0.40510    0.58457    1.000
    N4994    N        0.86070    0.48531    0.51286    1.000
    Si4995   Si       0.86207    0.44817    0.53636    1.000
    N4996    N        0.82413    0.43701    0.55458    1.000
    N4997    N        0.86646    0.42054    0.60505    1.000
    Si4998   Si       0.81839    0.49043    0.49942    1.000
    Si4999   Si       0.85392    0.31422    0.62501    1.000
    Si5000   Si       0.84839    0.37126    0.67376    1.000
    N5001    N        0.82644    0.29009    0.64930    1.000
    N5002    N        0.83965    0.35390    0.63447    1.000
    Si5003   Si       0.83528    0.32804    0.73293    1.000
    N5004    N        0.86186    0.33619    0.69821    1.000
    N5005    N        0.83159    0.43902    0.74428    1.000
    Si5006   Si       0.84907    0.39837    0.73944    1.000
    N5007    N        0.86715    0.49168    0.62999    1.000
    Si5008   Si       0.86311    0.46877    0.74135    1.000
    N5009    N        0.84326    0.50290    0.68599    1.000
    N5010    N        0.82594    0.39205    0.70231    1.000
    N5011    N        0.84968    0.32816    0.82010    1.000
    Si5012   Si       0.83194    0.29040    0.80098    1.000
    Si5013   Si       0.85957    0.36415    0.80005    1.000
    N5014    N        0.83152    0.36526    0.76448    1.000
    N5015    N        0.84273    0.29259    0.75747    1.000
    N5016    N        0.84381    0.28470    0.86866    1.000
    Si5017   Si       0.85153    0.42270    0.85986    1.000
    N5018    N        0.82101    0.45071    0.84288    1.000
    N5019    N        0.86166    0.39703    0.82691    1.000
    Si5020   Si       0.86923    0.50643    0.78946    1.000
    N5021    N        0.84435    0.35046    0.99243    1.000
    N5022    N        0.82730    0.50297    0.94636    1.000
    N5023    N        0.83755    0.43651    0.95789    1.000
    N5024    N        0.82871    0.40822    0.89450    1.000
    Si5025   Si       0.85704    0.41750    0.92521    1.000
    N5026    N        0.83940    0.59450    0.04130    1.000
    N5027    N        0.85172    0.52422    0.05386    1.000
    Si5028   Si       0.82251    0.51941    0.08598    1.000
    Si5029   Si       0.85089    0.61924    0.00753    1.000
    Si5030   Si       0.82421    0.60016    0.08380    1.000
    Si5031   Si       0.86486    0.55874    0.03441    1.000
    N5032    N        0.85262    0.60771    0.11573    1.000
    N5033    N        0.85138    0.65836    0.02972    1.000
    N5034    N        0.84867    0.70763    0.10824    1.000
    Si5035   Si       0.87324    0.69313    0.01586    1.000
    Si5036   Si       0.81411    0.72683    0.08984    1.000
    N5037    N        0.83154    0.54884    0.23490    1.000
    Si5038   Si       0.85784    0.52384    0.15392    1.000
    Si5039   Si       0.82494    0.57238    0.19855    1.000
    N5040    N        0.85168    0.60669    0.19865    1.000
    Si5041   Si       0.86423    0.62031    0.15534    1.000
    N5042    N        0.82335    0.54956    0.16234    1.000
    Si5043   Si       0.81904    0.62771    0.22849    1.000
    N5044    N        0.85315    0.65018    0.24677    1.000
    Si5045   Si       0.86616    0.69650    0.14796    1.000
    N5046    N        0.84743    0.65997    0.15790    1.000
    N5047    N        0.82348    0.71435    0.24604    1.000
    N5048    N        0.85473    0.57530    0.30508    1.000
    N5049    N        0.83639    0.52508    0.34767    1.000
    Si5050   Si       0.84904    0.56881    0.34834    1.000
    Si5051   Si       0.85072    0.61831    0.28670    1.000
    Si5052   Si       0.81464    0.55872    0.27432    1.000
    N5053    N        0.81942    0.51467    0.28590    1.000
    N5054    N        0.81459    0.60590    0.26566    1.000
    N5055    N        0.83846    0.64033    0.32408    1.000
    Si5056   Si       0.83438    0.74928    0.35757    1.000
    Si5057   Si       0.85626    0.67900    0.33588    1.000
    N5058    N        0.82322    0.70686    0.35034    1.000
    Si5059   Si       0.85798    0.69131    0.25634    1.000
    Si5060   Si       0.85461    0.60820    0.43203    1.000
    Si5061   Si       0.84570    0.53255    0.44360    1.000
    N5062    N        0.83481    0.57037    0.42501    1.000
    N5063    N        0.86108    0.63281    0.39916    1.000
    N5064    N        0.83071    0.63211    0.45908    1.000
    N5065    N        0.81148    0.51842    0.46820    1.000
    Si5066   Si       0.85350    0.73781    0.42420    1.000
    N5067    N        0.82170    0.75701    0.44635    1.000
    N5068    N        0.86150    0.68042    0.48978    1.000
    N5069    N        0.86355    0.75917    0.38773    1.000
    Si5070   Si       0.83086    0.67525    0.45965    1.000
    N5071    N        0.84510    0.69606    0.42414    1.000
    N5072    N        0.83930    0.53822    0.58980    1.000
    Si5073   Si       0.82553    0.60507    0.56827    1.000
    N5074    N        0.86804    0.60045    0.57688    1.000
    N5075    N        0.85066    0.58189    0.50236    1.000
    Si5076   Si       0.82117    0.61353    0.49847    1.000
    N5077    N        0.82650    0.63895    0.53471    1.000
    Si5078   Si       0.82330    0.68954    0.60283    1.000
    Si5079   Si       0.84922    0.67460    0.53192    1.000
    N5080    N        0.83146    0.70397    0.56152    1.000
    Si5081   Si       0.83922    0.74544    0.55551    1.000
    N5082    N        0.85395    0.65915    0.61346    1.000
    N5083    N        0.83980    0.74878    0.51201    1.000
    Si5084   Si       0.83736    0.52482    0.63318    1.000
    N5085    N        0.83807    0.56635    0.65206    1.000
    Si5086   Si       0.84857    0.53549    0.71390    1.000
    N5087    N        0.84823    0.61915    0.75168    1.000
    Si5088   Si       0.81891    0.75517    0.65087    1.000
    Si5089   Si       0.83926    0.70853    0.70729    1.000
    Si5090   Si       0.85449    0.65015    0.65622    1.000
    N5091    N        0.81559    0.63472    0.66859    1.000
    N5092    N        0.86541    0.72380    0.73632    1.000
    N5093    N        0.83820    0.72313    0.62883    1.000
    N5094    N        0.86883    0.68558    0.67851    1.000
    N5095    N        0.81695    0.74549    0.69402    1.000
    Si5096   Si       0.84480    0.54461    0.84969    1.000
    N5097    N        0.82858    0.58442    0.85278    1.000
    N5098    N        0.83849    0.51771    0.81671    1.000
    N5099    N        0.84900    0.51140    0.75128    1.000
    N5100    N        0.87258    0.69957    0.83932    1.000
    N5101    N        0.82171    0.64836    0.84034    1.000
    N5102    N        0.83167    0.69595    0.78698    1.000
    Si5103   Si       0.85221    0.66864    0.81500    1.000
    Si5104   Si       0.84611    0.73535    0.77349    1.000
    Si5105   Si       0.84173    0.62365    0.86958    1.000
    N5106    N        0.82550    0.63116    0.90995    1.000
    N5107    N        0.85703    0.55404    0.98820    1.000
    N5108    N        0.82468    0.51648    0.87757    1.000
    Si5109   Si       0.86252    0.51314    0.97027    1.000
    N5110    N        0.82413    0.60732    0.97638    1.000
    Si5111   Si       0.83468    0.59853    0.93515    1.000
    Si5112   Si       0.87240    0.72569    0.87374    1.000
    N5113    N        0.84834    0.70123    0.98311    1.000
    Si5114   Si       0.86295    0.72878    0.95329    1.000
    N5115    N        0.82674    0.75000    0.93572    1.000
    Si5116   Si       0.84621    0.84972    0.10353    1.000
    Si5117   Si       0.82809    0.86493    0.03290    1.000
    N5118    N        0.82558    0.87757    0.07485    1.000
    N5119    N        0.81618    0.82209    0.03312    1.000
    N5120    N        0.81297    0.83143    0.12447    1.000
    N5121    N        0.87325    0.86590    0.03555    1.000
    Si5122   Si       0.85638    0.95422    0.09984    1.000
    N5123    N        0.84090    0.97714    0.06635    1.000
    N5124    N        0.84553    0.93032    0.01993    1.000
    N5125    N        0.82563    0.93043    0.11660    1.000
    Si5126   Si       0.81353    0.95630    0.03803    1.000
    N5127    N        0.86207    0.87829    0.13088    1.000
    N5128    N        0.83851    0.77102    0.20269    1.000
    N5129    N        0.86101    0.78179    0.14311    1.000
    Si5130   Si       0.82119    0.78902    0.13001    1.000
    Si5131   Si       0.82938    0.75833    0.24365    1.000
    Si5132   Si       0.87221    0.98981    0.21271    1.000
    N5133    N        0.84545    0.90357    0.18802    1.000
    N5134    N        0.85512    0.95394    0.22869    1.000
    Si5135   Si       0.82224    0.93012    0.21252    1.000
    Si5136   Si       0.82959    0.90237    0.14803    1.000
    N5137    N        0.83218    0.77830    0.32326    1.000
    Si5138   Si       0.84507    0.80173    0.28865    1.000
    N5139    N        0.86497    0.76969    0.26549    1.000
    N5140    N        0.83567    0.84497    0.25843    1.000
    Si5141   Si       0.82069    0.88471    0.27702    1.000
    Si5142   Si       0.82167    0.98276    0.32553    1.000
    N5143    N        0.85752    0.95430    0.32606    1.000
    Si5144   Si       0.85759    0.91016    0.32614    1.000
    N5145    N        0.83216    0.99508    0.28710    1.000
    N5146    N        0.85086    0.89139    0.36647    1.000
    N5147    N        0.86392    0.89762    0.27829    1.000
    N5148    N        0.81405    0.90272    0.31623    1.000
    N5149    N        0.85491    0.87004    0.48357    1.000
    Si5150   Si       0.82440    0.84295    0.49882    1.000
    Si5151   Si       0.83614    0.94548    0.44856    1.000
    N5152    N        0.84848    0.90841    0.43026    1.000
    Si5153   Si       0.82194    0.89754    0.39714    1.000
    N5154    N        0.85120    0.96243    0.48541    1.000
    Si5155   Si       0.85846    0.00209    0.38918    1.000
    N5156    N        0.83549    0.97468    0.41468    1.000
    N5157    N        0.83388    0.84864    0.58863    1.000
    N5158    N        0.84874    0.81519    0.52363    1.000
    Si5159   Si       0.86789    0.86645    0.61304    1.000
    Si5160   Si       0.81971    0.81930    0.55889    1.000
    Si5161   Si       0.87096    0.77875    0.51561    1.000
    N5162    N        0.81571    0.77785    0.57167    1.000
    Si5163   Si       0.81781    0.88868    0.56487    1.000
    Si5164   Si       0.83257    0.99600    0.50533    1.000
    N5165    N        0.85685    0.90259    0.54731    1.000
    N5166    N        0.86471    0.90948    0.61057    1.000
    N5167    N        0.82929    0.81507    0.71232    1.000
    Si5168   Si       0.82407    0.83173    0.67198    1.000
    Si5169   Si       0.83010    0.85149    0.73820    1.000
    N5170    N        0.83906    0.79290    0.64804    1.000
    N5171    N        0.85923    0.85334    0.65486    1.000
    Si5172   Si       0.84277    0.90715    0.71380    1.000
    N5173    N        0.87308    0.92719    0.68932    1.000
    N5174    N        0.83740    0.96681    0.64458    1.000
    Si5175   Si       0.84946    0.96373    0.68572    1.000
    Si5176   Si       0.87172    0.94955    0.62497    1.000
    N5177    N        0.86901    0.99837    0.69992    1.000
    Si5178   Si       0.87140    0.99817    0.74326    1.000
    Si5179   Si       0.85865    0.78877    0.83074    1.000
    N5180    N        0.85756    0.84337    0.77569    1.000
    N5181    N        0.84059    0.87446    0.85649    1.000
    Si5182   Si       0.87005    0.85842    0.81544    1.000
    N5183    N        0.81517    0.76535    0.76025    1.000
    N5184    N        0.84743    0.75843    0.86215    1.000
    N5185    N        0.83797    0.95110    0.81344    1.000
    Si5186   Si       0.85113    0.91649    0.84874    1.000
    Si5187   Si       0.83007    0.99251    0.80500    1.000
    Si5188   Si       0.85920    0.92843    0.78237    1.000
    N5189    N        0.83116    0.90660    0.75592    1.000
    N5190    N        0.87352    0.90086    0.81201    1.000
    N5191    N        0.83315    0.00612    0.76397    1.000
    Si5192   Si       0.86157    0.84332    0.87949    1.000
    Si5193   Si       0.83045    0.79547    0.93412    1.000
    N5194    N        0.85473    0.80466    0.97056    1.000
    Si5195   Si       0.81847    0.82170    0.98866    1.000
    N5196    N        0.82893    0.81948    0.89712    1.000
    N5197    N        0.83318    0.96667    0.92191    1.000
    Si5198   Si       0.86886    0.94638    0.91742    1.000
    Si5199   Si       0.90557    0.11819    0.11084    1.000
    Si5200   Si       0.89971    0.05011    0.09367    1.000
    N5201    N        0.92458    0.08566    0.08760    1.000
    N5202    N        0.91948    0.01832    0.07414    1.000
    N5203    N        0.90289    0.04630    0.00767    1.000
    N5204    N        0.92290    0.11218    0.02021    1.000
    N5205    N        0.91749    0.15510    0.09006    1.000
    N5206    N        0.90872    0.22569    0.08089    1.000
    N5207    N        0.90267    0.22863    0.01279    1.000
    Si5208   Si       0.88760    0.18836    0.08784    1.000
    Si5209   Si       0.91148    0.25661    0.10955    1.000
    N5210    N        0.88964    0.16390    0.00502    1.000
    N5211    N        0.91191    0.11628    0.15332    1.000
    Si5212   Si       0.90256    0.07438    0.16743    1.000
    N5213    N        0.89017    0.04836    0.13589    1.000
    N5214    N        0.88961    0.02016    0.24002    1.000
    N5215    N        0.87492    0.08045    0.19945    1.000
    Si5216   Si       0.93060    0.01860    0.21663    1.000
    N5217    N        0.93495    0.05254    0.18571    1.000
    Si5218   Si       0.92274    0.14641    0.18408    1.000
    N5219    N        0.88740    0.15983    0.20381    1.000
    N5220    N        0.91159    0.23236    0.14567    1.000
    Si5221   Si       0.90940    0.03859    0.27624    1.000
    N5222    N        0.88533    0.07420    0.27108    1.000
    N5223    N        0.89899    0.01305    0.31144    1.000
    Si5224   Si       0.87374    0.11564    0.27441    1.000
    N5225    N        0.90958    0.13871    0.28693    1.000
    N5226    N        0.89410    0.20728    0.25317    1.000
    N5227    N        0.89900    0.15315    0.35424    1.000
    Si5228   Si       0.88437    0.22009    0.29570    1.000
    N5229    N        0.92240    0.20691    0.31328    1.000
    N5230    N        0.92351    0.25664    0.35909    1.000
    Si5231   Si       0.92789    0.16307    0.32078    1.000
    N5232    N        0.93465    0.09995    0.48628    1.000
    N5233    N        0.88204    0.05122    0.48104    1.000
    N5234    N        0.89593    0.09604    0.39249    1.000
    Si5235   Si       0.92346    0.06155    0.47026    1.000
    N5236    N        0.92441    0.04513    0.42923    1.000
    Si5237   Si       0.93006    0.06968    0.39375    1.000
    N5238    N        0.92504    0.25016    0.47219    1.000
    Si5239   Si       0.89479    0.23800    0.38758    1.000
    N5240    N        0.89332    0.18525    0.47285    1.000
    N5241    N        0.91489    0.20994    0.41113    1.000
    Si5242   Si       0.89777    0.14029    0.39500    1.000
    Si5243   Si       0.92336    0.21017    0.45379    1.000
    N5244    N        0.89573    0.08052    0.54205    1.000
    Si5245   Si       0.89695    0.08583    0.58557    1.000
    Si5246   Si       0.91900    0.11123    0.52498    1.000
    N5247    N        0.89330    0.12798    0.59278    1.000
    N5248    N        0.92735    0.07692    0.61660    1.000
    N5249    N        0.92168    0.01977    0.57348    1.000
    N5250    N        0.89817    0.14921    0.52854    1.000
    Si5251   Si       0.89025    0.19055    0.51518    1.000
    N5252    N        0.92628    0.21328    0.52591    1.000
    N5253    N        0.89611    0.25106    0.58948    1.000
    Si5254   Si       0.93061    0.25526    0.51550    1.000
    Si5255   Si       0.87679    0.21604    0.60707    1.000
    Si5256   Si       0.90722    0.06425    0.72791    1.000
    N5257    N        0.91669    0.05614    0.68637    1.000
    N5258    N        0.89201    0.11372    0.66373    1.000
    Si5259   Si       0.88636    0.02789    0.67166    1.000
    N5260    N        0.88333    0.01652    0.62834    1.000
    Si5261   Si       0.92969    0.08885    0.65781    1.000
    N5262    N        0.87245    0.23531    0.65019    1.000
    Si5263   Si       0.89410    0.14380    0.63399    1.000
    N5264    N        0.91394    0.20896    0.69581    1.000
    Si5265   Si       0.88515    0.19354    0.72550    1.000
    Si5266   Si       0.90747    0.24633    0.67537    1.000
    N5267    N        0.91801    0.10919    0.85759    1.000
    Si5268   Si       0.91092    0.12574    0.76703    1.000
    Si5269   Si       0.89840    0.01653    0.84153    1.000
    Si5270   Si       0.92492    0.06892    0.86580    1.000
    N5271    N        0.90935    0.02482    0.74763    1.000
    N5272    N        0.90742    0.20564    0.80310    1.000
    Si5273   Si       0.91837    0.21089    0.84343    1.000
    N5274    N        0.90679    0.16474    0.74838    1.000
    N5275    N        0.92972    0.17204    0.85946    1.000
    N5276    N        0.87207    0.22827    0.74940    1.000
    N5277    N        0.89160    0.04025    0.87838    1.000
    N5278    N        0.87807    0.09785    0.97332    1.000
    Si5279   Si       0.91473    0.08261    0.98868    1.000
    Si5280   Si       0.89327    0.02117    0.91797    1.000
    N5281    N        0.92732    0.02687    0.94318    1.000
    Si5282   Si       0.87281    0.02341    0.98547    1.000
    Si5283   Si       0.89799    0.25800    0.98120    1.000
    Si5284   Si       0.89857    0.14173    0.87880    1.000
    N5285    N        0.88525    0.22703    0.87026    1.000
    N5286    N        0.90160    0.14357    0.92567    1.000
    N5287    N        0.87925    0.24190    0.94564    1.000
    Si5288   Si       0.90383    0.24258    0.90822    1.000
    N5289    N        0.91813    0.33168    0.07596    1.000
    Si5290   Si       0.87826    0.32347    0.09035    1.000
    N5291    N        0.87777    0.28344    0.10809    1.000
    N5292    N        0.87996    0.29293    0.00187    1.000
    N5293    N        0.91499    0.36381    0.99972    1.000
    Si5294   Si       0.89440    0.42591    0.04987    1.000
    N5295    N        0.90407    0.39952    0.08330    1.000
    Si5296   Si       0.87809    0.49262    0.04324    1.000
    N5297    N        0.91833    0.50584    0.04321    1.000
    N5298    N        0.93393    0.44219    0.03994    1.000
    N5299    N        0.88471    0.28556    0.22561    1.000
    Si5300   Si       0.89203    0.31716    0.19588    1.000
    N5301    N        0.87102    0.35487    0.18910    1.000
    Si5302   Si       0.88284    0.39503    0.12216    1.000
    N5303    N        0.91791    0.38982    0.22673    1.000
    Si5304   Si       0.88995    0.46561    0.18209    1.000
    N5305    N        0.92698    0.45766    0.20549    1.000
    Si5306   Si       0.89016    0.39242    0.19502    1.000
    N5307    N        0.89866    0.47194    0.14058    1.000
    N5308    N        0.91113    0.39936    0.15637    1.000
    N5309    N        0.90656    0.32598    0.27507    1.000
    Si5310   Si       0.90145    0.28397    0.26595    1.000
    N5311    N        0.87330    0.30163    0.35046    1.000
    N5312    N        0.87876    0.35980    0.32670    1.000
    Si5313   Si       0.88914    0.45964    0.35829    1.000
    N5314    N        0.90645    0.42393    0.33637    1.000
    N5315    N        0.87536    0.49563    0.26503    1.000
    Si5316   Si       0.91527    0.50836    0.27517    1.000
    Si5317   Si       0.90961    0.29466    0.37223    1.000
    Si5318   Si       0.92576    0.28198    0.44263    1.000
    N5319    N        0.88068    0.36758    0.38980    1.000
    N5320    N        0.89576    0.27432    0.41052    1.000
    Si5321   Si       0.92377    0.36722    0.39458    1.000
    N5322    N        0.92712    0.31883    0.46551    1.000
    Si5323   Si       0.91892    0.50759    0.46819    1.000
    N5324    N        0.87250    0.43959    0.39361    1.000
    N5325    N        0.91340    0.49101    0.37519    1.000
    N5326    N        0.90614    0.47427    0.44253    1.000
    N5327    N        0.89975    0.28595    0.52609    1.000
    Si5328   Si       0.90839    0.32301    0.50685    1.000
    Si5329   Si       0.91648    0.27728    0.61577    1.000
    N5330    N        0.93007    0.37581    0.61416    1.000
    N5331    N        0.89378    0.46673    0.56340    1.000
    Si5332   Si       0.88772    0.46097    0.60521    1.000
    Si5333   Si       0.89851    0.49792    0.53578    1.000
    N5334    N        0.87707    0.41376    0.51757    1.000
    N5335    N        0.93125    0.49541    0.50860    1.000
    N5336    N        0.89448    0.30919    0.63814    1.000
    N5337    N        0.89421    0.27737    0.70083    1.000
    Si5338   Si       0.89851    0.31671    0.68444    1.000
    Si5339   Si       0.87893    0.27157    0.74286    1.000
    Si5340   Si       0.92915    0.33506    0.62709    1.000
    Si5341   Si       0.88248    0.48640    0.67152    1.000
    N5342    N        0.88470    0.39491    0.66842    1.000
    Si5343   Si       0.89912    0.40312    0.62902    1.000
    N5344    N        0.92555    0.49253    0.67046    1.000
    N5345    N        0.91989    0.44252    0.62897    1.000
    Si5346   Si       0.90352    0.41963    0.69981    1.000
    N5347    N        0.89300    0.40023    0.73621    1.000
    N5348    N        0.88362    0.45817    0.70392    1.000
    N5349    N        0.90941    0.30401    0.83648    1.000
    N5350    N        0.90080    0.35854    0.78599    1.000
    N5351    N        0.90956    0.29060    0.76834    1.000
    Si5352   Si       0.91878    0.31956    0.79592    1.000
    Si5353   Si       0.87340    0.31441    0.85618    1.000
    Si5354   Si       0.92353    0.39108    0.76741    1.000
    N5355    N        0.91146    0.47752    0.84135    1.000
    N5356    N        0.88652    0.46699    0.77818    1.000
    Si5357   Si       0.92232    0.45910    0.80192    1.000
    N5358    N        0.90996    0.32532    0.94746    1.000
    Si5359   Si       0.89871    0.35815    0.91932    1.000
    Si5360   Si       0.91111    0.32094    0.99089    1.000
    N5361    N        0.92466    0.27895    0.90118    1.000
    Si5362   Si       0.87447    0.38171    0.98848    1.000
    N5363    N        0.87553    0.34336    0.88662    1.000
    N5364    N        0.93505    0.37620    0.90590    1.000
    N5365    N        0.88184    0.43964    0.88971    1.000
    N5366    N        0.87788    0.38675    0.94542    1.000
    Si5367   Si       0.91957    0.45511    0.87767    1.000
    N5368    N        0.90166    0.57109    0.05298    1.000
    Si5369   Si       0.91744    0.61034    0.06340    1.000
    Si5370   Si       0.93344    0.54223    0.06307    1.000
    Si5371   Si       0.88255    0.68719    0.08603    1.000
    N5372    N        0.88855    0.71482    0.05190    1.000
    N5373    N        0.90296    0.64878    0.07884    1.000
    Si5374   Si       0.92437    0.64354    0.11658    1.000
    Si5375   Si       0.91143    0.75462    0.05048    1.000
    N5376    N        0.91225    0.68105    0.00130    1.000
    N5377    N        0.89691    0.54598    0.14338    1.000
    N5378    N        0.90794    0.61925    0.15143    1.000
    N5379    N        0.91796    0.59439    0.20937    1.000
    Si5380   Si       0.88592    0.62028    0.22579    1.000
    Si5381   Si       0.92394    0.57807    0.13725    1.000
    Si5382   Si       0.91914    0.51064    0.13468    1.000
    N5383    N        0.90660    0.68512    0.12669    1.000
    N5384    N        0.91322    0.75462    0.14926    1.000
    N5385    N        0.90931    0.65633    0.20963    1.000
    Si5386   Si       0.91117    0.69971    0.20789    1.000
    N5387    N        0.87828    0.71639    0.18246    1.000
    Si5388   Si       0.89827    0.56791    0.29409    1.000
    N5389    N        0.89102    0.60753    0.26883    1.000
    Si5390   Si       0.90724    0.52782    0.35628    1.000
    N5391    N        0.89839    0.52420    0.31495    1.000
    N5392    N        0.92230    0.59379    0.32051    1.000
    Si5393   Si       0.92314    0.58742    0.36395    1.000
    N5394    N        0.92607    0.54887    0.26164    1.000
    N5395    N        0.88632    0.56572    0.36829    1.000
    Si5396   Si       0.92887    0.62124    0.28735    1.000
    N5397    N        0.90230    0.71454    0.24739    1.000
    Si5398   Si       0.91336    0.69942    0.28818    1.000
    N5399    N        0.88944    0.68623    0.36315    1.000
    N5400    N        0.87045    0.69525    0.29765    1.000
    Si5401   Si       0.92848    0.70478    0.35605    1.000
    Si5402   Si       0.92401    0.62753    0.43492    1.000
    N5403    N        0.89356    0.60115    0.45245    1.000
    N5404    N        0.88482    0.53373    0.46627    1.000
    Si5405   Si       0.88896    0.57282    0.48441    1.000
    Si5406   Si       0.87623    0.67197    0.40118    1.000
    N5407    N        0.90472    0.66722    0.43478    1.000
    N5408    N        0.88974    0.73334    0.44890    1.000
    Si5409   Si       0.89688    0.69404    0.46680    1.000
    N5410    N        0.90047    0.53506    0.55580    1.000
    Si5411   Si       0.87863    0.55760    0.58628    1.000
    N5412    N        0.92677    0.57321    0.50904    1.000
    Si5413   Si       0.88183    0.64087    0.58445    1.000
    N5414    N        0.88749    0.66538    0.54835    1.000
    N5415    N        0.90586    0.71821    0.61345    1.000
    N5416    N        0.92331    0.64676    0.60065    1.000
    Si5417   Si       0.92725    0.67540    0.53285    1.000
    Si5418   Si       0.90864    0.75388    0.58809    1.000
    N5419    N        0.90085    0.55885    0.62382    1.000
    Si5420   Si       0.92737    0.63235    0.64298    1.000
    N5421    N        0.88339    0.55899    0.70214    1.000
    Si5422   Si       0.91717    0.56700    0.72616    1.000
    N5423    N        0.88837    0.62004    0.65955    1.000
    Si5424   Si       0.87919    0.57620    0.65858    1.000
    Si5425   Si       0.87823    0.71757    0.64726    1.000
    Si5426   Si       0.90709    0.67858    0.69954    1.000
    N5427    N        0.88593    0.75086    0.67406    1.000
    N5428    N        0.92908    0.71742    0.70956    1.000
    Si5429   Si       0.89727    0.74439    0.71673    1.000
    N5430    N        0.91158    0.65234    0.73348    1.000
    N5431    N        0.90788    0.52719    0.79857    1.000
    N5432    N        0.90901    0.59020    0.76326    1.000
    Si5433   Si       0.91628    0.52090    0.84114    1.000
    N5434    N        0.88753    0.54807    0.86208    1.000
    Si5435   Si       0.88799    0.62825    0.76421    1.000
    Si5436   Si       0.90923    0.63437    0.83689    1.000
    N5437    N        0.88298    0.64144    0.80372    1.000
    Si5438   Si       0.91544    0.71033    0.83071    1.000
    N5439    N        0.91601    0.73755    0.86415    1.000
    N5440    N        0.88603    0.61987    0.87147    1.000
    Si5441   Si       0.89654    0.58006    0.88986    1.000
    Si5442   Si       0.89489    0.57042    0.96426    1.000
    N5443    N        0.89901    0.52611    0.95082    1.000
    N5444    N        0.88833    0.61384    0.98743    1.000
    N5445    N        0.87609    0.58323    0.92686    1.000
    N5446    N        0.87849    0.71497    0.91580    1.000
    Si5447   Si       0.92179    0.72211    0.91093    1.000
    Si5448   Si       0.93313    0.72145    0.99418    1.000
    Si5449   Si       0.92316    0.63935    0.99210    1.000
    N5450    N        0.89806    0.74478    0.97806    1.000
    N5451    N        0.88962    0.78929    0.03104    1.000
    Si5452   Si       0.89049    0.82835    0.05032    1.000
    N5453    N        0.92234    0.77072    0.08891    1.000
    Si5454   Si       0.89584    0.79010    0.11848    1.000
    N5455    N        0.87587    0.82134    0.09015    1.000
    N5456    N        0.92898    0.87478    0.10859    1.000
    N5457    N        0.93241    0.83559    0.04750    1.000
    N5458    N        0.90876    0.93129    0.01804    1.000
    Si5459   Si       0.89656    0.90141    0.11701    1.000
    N5460    N        0.88368    0.92277    0.08275    1.000
    Si5461   Si       0.87832    0.90843    0.04146    1.000
    N5462    N        0.90824    0.77483    0.20759    1.000
    N5463    N        0.91327    0.86911    0.18157    1.000
    N5464    N        0.92317    0.81501    0.14198    1.000
    Si5465   Si       0.87516    0.75973    0.17898    1.000
    Si5466   Si       0.88952    0.90474    0.18525    1.000
    Si5467   Si       0.90765    0.97047    0.15164    1.000
    N5468    N        0.91047    0.91845    0.22224    1.000
    N5469    N        0.87235    0.98293    0.12896    1.000
    N5470    N        0.90948    0.98843    0.18998    1.000
    N5471    N        0.90410    0.92719    0.15155    1.000
    Si5472   Si       0.90597    0.82985    0.33756    1.000
    N5473    N        0.91898    0.78890    0.34451    1.000
    Si5474   Si       0.87652    0.85637    0.27114    1.000
    N5475    N        0.91316    0.84664    0.25142    1.000
    N5476    N        0.87420    0.83115    0.30535    1.000
    Si5477   Si       0.90344    0.76098    0.24899    1.000
    N5478    N        0.90307    0.90877    0.33790    1.000
    N5479    N        0.90396    0.95157    0.28237    1.000
    Si5480   Si       0.88246    0.92834    0.25308    1.000
    Si5481   Si       0.87441    0.98208    0.29617    1.000
    Si5482   Si       0.92189    0.00334    0.34593    1.000
    N5483    N        0.90309    0.84586    0.37752    1.000
    N5484    N        0.92264    0.79017    0.41860    1.000
    Si5485   Si       0.92158    0.83450    0.41518    1.000
    Si5486   Si       0.92045    0.76636    0.45571    1.000
    N5487    N        0.90867    0.84793    0.45377    1.000
    Si5488   Si       0.90534    0.77097    0.38150    1.000
    N5489    N        0.90578    0.78867    0.49064    1.000
    Si5490   Si       0.91821    0.83105    0.49264    1.000
    N5491    N        0.91182    0.89644    0.41280    1.000
    N5492    N        0.90987    0.97225    0.44804    1.000
    N5493    N        0.90154    0.91368    0.48255    1.000
    N5494    N        0.89980    0.99219    0.38168    1.000
    Si5495   Si       0.89324    0.88957    0.37560    1.000
    Si5496   Si       0.89479    0.95817    0.48582    1.000
    Si5497   Si       0.92303    0.00203    0.41752    1.000
    Si5498   Si       0.88292    0.88899    0.44880    1.000
    N5499    N        0.90780    0.85646    0.52706    1.000
    N5500    N        0.90873    0.86138    0.59797    1.000
    N5501    N        0.90731    0.78604    0.61957    1.000
    Si5502   Si       0.92977    0.86941    0.56095    1.000
    N5503    N        0.88061    0.75891    0.55630    1.000
    Si5504   Si       0.88089    0.88825    0.51295    1.000
    Si5505   Si       0.88709    0.92341    0.57428    1.000
    Si5506   Si       0.89614    0.99385    0.55094    1.000
    N5507    N        0.91681    0.97120    0.52059    1.000
    N5508    N        0.88853    0.96506    0.58476    1.000
    N5509    N        0.92497    0.91237    0.55426    1.000
    Si5510   Si       0.91528    0.99254    0.61391    1.000
    N5511    N        0.90263    0.81732    0.68352    1.000
    Si5512   Si       0.88334    0.79064    0.65501    1.000
    Si5513   Si       0.88958    0.85758    0.68666    1.000
    N5514    N        0.91287    0.77626    0.74165    1.000
    N5515    N        0.87153    0.87089    0.72251    1.000
    N5516    N        0.90893    0.95587    0.64321    1.000
    Si5517   Si       0.91289    0.92766    0.67624    1.000
    N5518    N        0.91929    0.88624    0.66625    1.000
    N5519    N        0.91381    0.85365    0.80194    1.000
    Si5520   Si       0.89678    0.86050    0.75794    1.000
    N5521    N        0.87936    0.82605    0.84498    1.000
    Si5522   Si       0.91313    0.76496    0.78519    1.000
    Si5523   Si       0.92274    0.82479    0.83325    1.000
    N5524    N        0.87241    0.76259    0.79798    1.000
    N5525    N        0.91732    0.97802    0.84241    1.000
    N5526    N        0.87997    0.95680    0.75640    1.000
    N5527    N        0.92286    0.90072    0.76037    1.000
    Si5528   Si       0.92120    0.94479    0.75000    1.000
    Si5529   Si       0.91471    0.95321    0.87589    1.000
    Si5530   Si       0.89015    0.78674    0.98663    1.000
    N5531    N        0.88338    0.85976    0.91164    1.000
    N5532    N        0.92985    0.80595    0.98098    1.000
    N5533    N        0.93597    0.76217    0.92028    1.000
    Si5534   Si       0.87696    0.94328    0.98910    1.000
    N5535    N        0.89649    0.97852    0.90977    1.000
    Si5536   Si       0.89883    0.88795    0.93740    1.000
    N5537    N        0.88762    0.98394    0.98135    1.000
    N5538    N        0.87629    0.92145    0.95213    1.000
    N5539    N        0.87976    0.92733    0.87898    1.000
    N5540    N        0.96579    0.05800    0.04172    1.000
    Si5541   Si       0.94811    0.09703    0.05275    1.000
    N5542    N        0.97673    0.12804    0.05925    1.000
    Si5543   Si       0.93311    0.02989    0.03387    1.000
    Si5544   Si       0.95799    0.16495    0.07405    1.000
    N5545    N        0.94799    0.18458    0.03707    1.000
    N5546    N        0.98256    0.17124    0.10971    1.000
    Si5547   Si       0.93287    0.15424    0.01188    1.000
    N5548    N        0.96544    0.25455    0.04166    1.000
    Si5549   Si       0.93213    0.22576    0.04457    1.000
    Si5550   Si       0.98303    0.11542    0.20016    1.000
    Si5551   Si       0.97698    0.04632    0.18792    1.000
    N5552    N        0.94255    0.12193    0.21490    1.000
    N5553    N        0.99051    0.07694    0.21411    1.000
    Si5554   Si       0.94634    0.22314    0.16763    1.000
    Si5555   Si       0.97769    0.18940    0.21361    1.000
    Si5556   Si       0.98439    0.15815    0.14955    1.000
    N5557    N        0.94638    0.22647    0.21045    1.000
    N5558    N        0.95275    0.17622    0.17358    1.000
    N5559    N        0.98336    0.23848    0.15077    1.000
    N5560    N        0.96784    0.10481    0.27255    1.000
    N5561    N        0.94031    0.03949    0.36119    1.000
    Si5562   Si       0.98012    0.06697    0.25360    1.000
    Si5563   Si       0.98387    0.05525    0.36183    1.000
    N5564    N        0.94765    0.03955    0.25742    1.000
    Si5565   Si       0.94363    0.13721    0.25758    1.000
    N5566    N        0.97018    0.14615    0.32529    1.000
    Si5567   Si       0.95044    0.23028    0.33721    1.000
    N5568    N        0.98566    0.24586    0.31965    1.000
    N5569    N        0.96325    0.19943    0.36515    1.000
    N5570    N        0.95739    0.17868    0.25245    1.000
    Si5571   Si       0.93532    0.21707    0.25252    1.000
    Si5572   Si       0.97670    0.11297    0.48851    1.000
    N5573    N        0.96907    0.08816    0.39189    1.000
    Si5574   Si       0.97688    0.12822    0.40873    1.000
    N5575    N        0.94895    0.03542    0.49437    1.000
    N5576    N        0.98841    0.11053    0.44804    1.000
    Si5577   Si       0.99057    0.24212    0.43735    1.000
    N5578    N        0.93787    0.14925    0.41173    1.000
    N5579    N        0.96794    0.20396    0.44485    1.000
    Si5580   Si       0.95313    0.19035    0.40596    1.000
    Si5581   Si       0.94979    0.04391    0.59610    1.000
    N5582    N        0.94911    0.11216    0.55671    1.000
    N5583    N        0.99251    0.21206    0.51147    1.000
    N5584    N        0.97166    0.15560    0.49936    1.000
    N5585    N        0.96203    0.17465    0.57123    1.000
    Si5586   Si       0.96091    0.18738    0.53001    1.000
    Si5587   Si       0.93769    0.14383    0.58788    1.000
    N5588    N        0.97075    0.10893    0.66529    1.000
    N5589    N        0.95370    0.00984    0.62576    1.000
    N5590    N        0.97803    0.17906    0.68743    1.000
    N5591    N        0.98244    0.24725    0.69903    1.000
    N5592    N        0.93569    0.15424    0.62988    1.000
    Si5593   Si       0.95665    0.21018    0.70579    1.000
    Si5594   Si       0.97275    0.15096    0.65327    1.000
    N5595    N        0.97075    0.03836    0.77731    1.000
    Si5596   Si       0.97268    0.07653    0.75767    1.000
    Si5597   Si       0.97171    0.03027    0.81898    1.000
    N5598    N        0.93117    0.09228    0.75091    1.000
    N5599    N        0.98437    0.12326    0.84728    1.000
    N5600    N        0.93083    0.04337    0.83068    1.000
    Si5601   Si       0.94932    0.00873    0.75402    1.000
    Si5602   Si       0.98660    0.22374    0.83973    1.000
    N5603    N        0.98015    0.19913    0.80543    1.000
    Si5604   Si       0.94483    0.13639    0.83817    1.000
    Si5605   Si       0.93745    0.18299    0.77938    1.000
    N5606    N        0.94828    0.24190    0.84807    1.000
    N5607    N        0.93991    0.14242    0.79505    1.000
    N5608    N        0.95894    0.20511    0.74847    1.000
    Si5609   Si       0.95657    0.05672    0.93640    1.000
    N5610    N        0.95867    0.06132    0.89213    1.000
    N5611    N        0.94401    0.09240    0.95589    1.000
    Si5612   Si       0.94080    0.13313    0.94210    1.000
    N5613    N        0.93263    0.21071    0.91729    1.000
    N5614    N        0.96933    0.14259    0.91151    1.000
    N5615    N        0.95801    0.15736    0.97539    1.000
    Si5616   Si       0.95518    0.18298    0.89507    1.000
    N5617    N        0.94874    0.27834    0.10397    1.000
    Si5618   Si       0.94872    0.30248    0.06529    1.000
    N5619    N        0.94812    0.31435    0.01703    1.000
    Si5620   Si       0.95755    0.35771    0.00975    1.000
    N5621    N        0.96152    0.37414    0.11540    1.000
    Si5622   Si       0.93581    0.37179    0.08081    1.000
    Si5623   Si       0.96568    0.27721    0.00330    1.000
    N5624    N        0.96162    0.37996    0.04578    1.000
    N5625    N        0.98754    0.32211    0.07437    1.000
    Si5626   Si       0.98691    0.27505    0.12789    1.000
    N5627    N        0.98607    0.48975    0.04074    1.000
    Si5628   Si       0.97203    0.42233    0.04492    1.000
    Si5629   Si       0.94712    0.48170    0.02463    1.000
    N5630    N        0.99082    0.42789    0.00548    1.000
    N5631    N        0.93468    0.31983    0.19040    1.000
    Si5632   Si       0.97686    0.33133    0.18695    1.000
    N5633    N        0.97350    0.37587    0.18704    1.000
    N5634    N        0.98772    0.31627    0.14564    1.000
    Si5635   Si       0.96119    0.38229    0.22867    1.000
    N5636    N        0.97116    0.43675    0.15114    1.000
    Si5637   Si       0.96132    0.46867    0.17935    1.000
    Si5638   Si       0.95510    0.45506    0.23954    1.000
    Si5639   Si       0.95467    0.39596    0.15321    1.000
    N5640    N        0.95484    0.50707    0.16089    1.000
    Si5641   Si       0.94555    0.33980    0.28221    1.000
    Si5642   Si       0.97286    0.27235    0.28722    1.000
    N5643    N        0.95005    0.37233    0.31175    1.000
    N5644    N        0.97159    0.31222    0.30574    1.000
    Si5645   Si       0.98366    0.34905    0.32976    1.000
    N5646    N        0.97226    0.34628    0.24919    1.000
    N5647    N        0.93539    0.25708    0.27065    1.000
    N5648    N        0.98490    0.49467    0.35130    1.000
    Si5649   Si       0.94668    0.40804    0.33706    1.000
    N5650    N        0.94672    0.47925    0.27543    1.000
    N5651    N        0.97627    0.43300    0.31882    1.000
    Si5652   Si       0.97446    0.47533    0.31127    1.000
    N5653    N        0.97182    0.41702    0.25255    1.000
    N5654    N        0.98758    0.33050    0.44086    1.000
    Si5655   Si       0.95404    0.35265    0.45960    1.000
    Si5656   Si       0.97368    0.31311    0.40062    1.000
    N5657    N        0.96503    0.27321    0.42087    1.000
    N5658    N        0.97597    0.37385    0.49232    1.000
    N5659    N        0.93805    0.38196    0.43427    1.000
    N5660    N        0.93539    0.32699    0.38700    1.000
    Si5661   Si       0.93529    0.48671    0.41214    1.000
    N5662    N        0.95382    0.39297    0.37626    1.000
    Si5663   Si       0.96257    0.41373    0.41273    1.000
    N5664    N        0.96290    0.45476    0.40260    1.000
    Si5665   Si       0.96104    0.30885    0.55339    1.000
    Si5666   Si       0.97291    0.36701    0.53384    1.000
    N5667    N        0.96640    0.27156    0.53192    1.000
    N5668    N        0.94132    0.30627    0.59385    1.000
    N5669    N        0.93751    0.34169    0.53421    1.000
    Si5670   Si       0.97007    0.39251    0.60693    1.000
    Si5671   Si       0.97425    0.49451    0.51787    1.000
    N5672    N        0.97792    0.39638    0.56417    1.000
    N5673    N        0.98618    0.46806    0.55124    1.000
    N5674    N        0.93813    0.33347    0.67309    1.000
    Si5675   Si       0.97883    0.33119    0.68870    1.000
    N5676    N        0.98190    0.31195    0.72713    1.000
    Si5677   Si       0.98066    0.26176    0.65784    1.000
    N5678    N        0.95568    0.37516    0.74298    1.000
    N5679    N        0.93793    0.26120    0.64981    1.000
    N5680    N        0.94391    0.42356    0.68895    1.000
    N5681    N        0.98632    0.48136    0.67964    1.000
    Si5682   Si       0.95402    0.51084    0.69614    1.000
    Si5683   Si       0.95270    0.45282    0.65758    1.000
    Si5684   Si       0.97225    0.40093    0.71292    1.000
    N5685    N        0.98210    0.42679    0.62952    1.000
    N5686    N        0.96283    0.32712    0.79507    1.000
    N5687    N        0.97609    0.30415    0.85806    1.000
    Si5688   Si       0.93917    0.28234    0.86104    1.000
    Si5689   Si       0.98145    0.34257    0.75709    1.000
    Si5690   Si       0.99057    0.33326    0.82784    1.000
    N5691    N        0.98964    0.37582    0.83648    1.000
    Si5692   Si       0.97189    0.41575    0.82864    1.000
    N5693    N        0.95703    0.48167    0.78540    1.000
    N5694    N        0.95622    0.43084    0.86848    1.000
    N5695    N        0.93897    0.41822    0.79961    1.000
    Si5696   Si       0.94285    0.29909    0.93533    1.000
    N5697    N        0.97965    0.31956    0.92666    1.000
    N5698    N        0.93811    0.27261    0.96991    1.000
    N5699    N        0.99019    0.36411    0.98149    1.000
    Si5700   Si       0.93706    0.50477    0.94489    1.000
    N5701    N        0.95920    0.42811    0.94292    1.000
    N5702    N        0.93543    0.48508    0.90505    1.000
    N5703    N        0.94868    0.48316    0.98046    1.000
    Si5704   Si       0.96330    0.40780    0.90494    1.000
    Si5705   Si       0.97815    0.45193    0.97243    1.000
    N5706    N        0.96856    0.55227    0.03711    1.000
    N5707    N        0.94421    0.52786    0.10179    1.000
    Si5708   Si       0.96019    0.58275    0.00805    1.000
    N5709    N        0.94008    0.61677    0.02799    1.000
    N5710    N        0.93689    0.59818    0.09881    1.000
    Si5711   Si       0.98186    0.60565    0.12033    1.000
    N5712    N        0.94683    0.74745    0.02814    1.000
    N5713    N        0.96503    0.71747    0.11378    1.000
    N5714    N        0.96696    0.64786    0.12376    1.000
    Si5715   Si       0.97894    0.52461    0.12911    1.000
    Si5716   Si       0.94638    0.57800    0.23598    1.000
    N5717    N        0.98267    0.56571    0.21361    1.000
    N5718    N        0.96546    0.57482    0.15000    1.000
    Si5719   Si       0.93306    0.62874    0.18583    1.000
    N5720    N        0.94730    0.70689    0.18414    1.000
    N5721    N        0.97504    0.63516    0.19466    1.000
    Si5722   Si       0.98652    0.64092    0.23540    1.000
    Si5723   Si       0.93332    0.71442    0.14498    1.000
    N5724    N        0.95978    0.61246    0.25854    1.000
    N5725    N        0.94611    0.54849    0.36362    1.000
    Si5726   Si       0.98780    0.53814    0.35924    1.000
    N5727    N        0.98803    0.62447    0.34127    1.000
    Si5728   Si       0.97512    0.66172    0.32010    1.000
    N5729    N        0.96087    0.67635    0.35853    1.000
    N5730    N        0.93638    0.66244    0.29708    1.000
    N5731    N        0.93076    0.72623    0.31940    1.000
    N5732    N        0.93466    0.61652    0.39273    1.000
    N5733    N        0.95123    0.51805    0.43892    1.000
    N5734    N        0.95678    0.62486    0.46383    1.000
    Si5735   Si       0.96802    0.75328    0.41085    1.000
    N5736    N        0.93369    0.73570    0.38493    1.000
    Si5737   Si       0.97121    0.64012    0.37776    1.000
    N5738    N        0.95663    0.74585    0.45330    1.000
    Si5739   Si       0.96655    0.71688    0.48474    1.000
    N5740    N        0.92889    0.69573    0.49431    1.000
    N5741    N        0.97739    0.53081    0.54459    1.000
    Si5742   Si       0.95013    0.62297    0.57595    1.000
    N5743    N        0.97001    0.52376    0.61104    1.000
    N5744    N        0.94507    0.58102    0.57772    1.000
    Si5745   Si       0.93925    0.55263    0.54594    1.000
    Si5746   Si       0.95464    0.60414    0.50325    1.000
    Si5747   Si       0.94531    0.56142    0.62012    1.000
    N5748    N        0.94603    0.63629    0.53394    1.000
    N5749    N        0.94611    0.70366    0.55999    1.000
    Si5750   Si       0.97251    0.73904    0.55657    1.000
    Si5751   Si       0.93736    0.69118    0.60181    1.000
    Si5752   Si       0.97426    0.58521    0.67810    1.000
    N5753    N        0.95351    0.59753    0.64395    1.000
    N5754    N        0.94680    0.59570    0.70956    1.000
    N5755    N        0.97417    0.54192    0.67160    1.000
    N5756    N        0.93841    0.52864    0.73184    1.000
    Si5757   Si       0.95000    0.63368    0.73130    1.000
    N5758    N        0.97631    0.69471    0.62096    1.000
    Si5759   Si       0.97911    0.67379    0.67508    1.000
    Si5760   Si       0.96545    0.74182    0.71032    1.000
    N5761    N        0.93664    0.66437    0.66958    1.000
    N5762    N        0.98552    0.65084    0.71269    1.000
    N5763    N        0.98921    0.74748    0.74655    1.000
    N5764    N        0.96746    0.55349    0.78965    1.000
    N5765    N        0.95998    0.52320    0.85192    1.000
    Si5766   Si       0.96232    0.59212    0.86298    1.000
    N5767    N        0.96299    0.62123    0.77147    1.000
    Si5768   Si       0.94203    0.58918    0.79019    1.000
    Si5769   Si       0.94305    0.52126    0.77507    1.000
    Si5770   Si       0.98946    0.53926    0.82305    1.000
    N5771    N        0.93498    0.59917    0.83070    1.000
    Si5772   Si       0.97828    0.72517    0.78227    1.000
    N5773    N        0.93567    0.72629    0.79377    1.000
    Si5774   Si       0.96352    0.67387    0.87122    1.000
    N5775    N        0.93445    0.67154    0.83963    1.000
    N5776    N        0.97658    0.52613    0.93145    1.000
    Si5777   Si       0.96154    0.56817    0.93175    1.000
    N5778    N        0.93952    0.57454    0.96822    1.000
    N5779    N        0.93919    0.57678    0.89723    1.000
    N5780    N        0.97661    0.63274    0.87687    1.000
    Si5781   Si       0.97406    0.50579    0.89081    1.000
    Si5782   Si       0.96994    0.68054    0.94552    1.000
    N5783    N        0.95728    0.64422    0.96760    1.000
    N5784    N        0.94920    0.68896    0.90894    1.000
    N5785    N        0.96912    0.71483    0.97151    1.000
    Si5786   Si       0.95307    0.85975    0.07625    1.000
    Si5787   Si       0.95268    0.82625    0.01048    1.000
    N5788    N        0.98511    0.80632    0.02934    1.000
    Si5789   Si       0.98597    0.76442    0.03638    1.000
    N5790    N        0.98969    0.84559    0.09392    1.000
    Si5791   Si       0.96188    0.76084    0.10880    1.000
    N5792    N        0.98812    0.91766    0.11629    1.000
    N5793    N        0.94711    0.99617    0.00769    1.000
    N5794    N        0.96923    0.89339    0.05516    1.000
    Si5795   Si       0.94615    0.95433    0.02469    1.000
    Si5796   Si       0.95060    0.99373    0.09115    1.000
    N5797    N        0.95764    0.95877    0.06587    1.000
    N5798    N        0.98047    0.93559    0.00545    1.000
    Si5799   Si       0.98633    0.92776    0.07380    1.000
    Si5800   Si       0.98907    0.89323    0.01592    1.000
    N5801    N        0.97813    0.86376    0.15772    1.000
    Si5802   Si       0.93729    0.78656    0.17237    1.000
    N5803    N        0.95907    0.81757    0.19982    1.000
    N5804    N        0.97267    0.77221    0.14901    1.000
    N5805    N        0.96724    0.87749    0.22541    1.000
    Si5806   Si       0.93712    0.85531    0.14775    1.000
    Si5807   Si       0.93440    0.85120    0.21534    1.000
    N5808    N        0.97400    0.94106    0.18569    1.000
    Si5809   Si       0.98038    0.95159    0.14357    1.000
    Si5810   Si       0.95419    0.91879    0.21639    1.000
    N5811    N        0.94689    0.97857    0.13204    1.000
    N5812    N        0.97185    0.00715    0.20766    1.000
    Si5813   Si       0.97092    0.87455    0.33285    1.000
    Si5814   Si       0.94214    0.82628    0.27813    1.000
    N5815    N        0.94108    0.84617    0.31947    1.000
    Si5816   Si       0.94291    0.76622    0.31533    1.000
    N5817    N        0.98649    0.77553    0.31366    1.000
    N5818    N        0.98415    0.83086    0.27010    1.000
    N5819    N        0.93085    0.78334    0.27585    1.000
    N5820    N        0.96547    0.90977    0.30755    1.000
    N5821    N        0.94969    0.97204    0.33276    1.000
    N5822    N        0.97298    0.94335    0.24929    1.000
    Si5823   Si       0.93086    0.93528    0.31506    1.000
    N5824    N        0.97744    0.89601    0.37154    1.000
    N5825    N        0.96349    0.84740    0.41755    1.000
    Si5826   Si       0.98105    0.83666    0.45656    1.000
    N5827    N        0.98642    0.78438    0.38419    1.000
    N5828    N        0.96209    0.83539    0.49387    1.000
    Si5829   Si       0.95157    0.95338    0.44689    1.000
    N5830    N        0.96363    0.98493    0.41948    1.000
    N5831    N        0.96692    0.95861    0.48728    1.000
    N5832    N        0.97079    0.91726    0.43830    1.000
    Si5833   Si       0.95550    0.88918    0.40840    1.000
    N5834    N        0.97020    0.85754    0.56221    1.000
    Si5835   Si       0.95048    0.79019    0.61306    1.000
    N5836    N        0.94660    0.77125    0.57290    1.000
    Si5837   Si       0.98813    0.85901    0.52082    1.000
    Si5838   Si       0.98946    0.86121    0.60150    1.000
    Si5839   Si       0.95077    0.93239    0.52604    1.000
    N5840    N        0.97689    0.89965    0.51183    1.000
    Si5841   Si       0.95397    0.99457    0.50897    1.000
    N5842    N        0.98336    0.95485    0.54753    1.000
    N5843    N        0.96473    0.83069    0.62346    1.000
    N5844    N        0.96370    0.78361    0.69748    1.000
    Si5845   Si       0.93980    0.86727    0.63161    1.000
    Si5846   Si       0.95717    0.88033    0.74116    1.000
    N5847    N        0.97462    0.76426    0.63769    1.000
    N5848    N        0.98555    0.88318    0.71106    1.000
    Si5849   Si       0.93193    0.80735    0.71426    1.000
    N5850    N        0.93128    0.84413    0.73447    1.000
    N5851    N        0.97341    0.89507    0.62546    1.000
    N5852    N        0.97440    0.00122    0.71925    1.000
    Si5853   Si       0.97744    0.95991    0.70302    1.000
    N5854    N        0.93725    0.94349    0.71021    1.000
    N5855    N        0.98806    0.95880    0.65957    1.000
    N5856    N        0.96539    0.86424    0.84708    1.000
    Si5857   Si       0.98228    0.78176    0.82291    1.000
    N5858    N        0.97828    0.87221    0.78015    1.000
    N5859    N        0.94046    0.79003    0.81288    1.000
    N5860    N        0.98015    0.76683    0.86485    1.000
    N5861    N        0.93590    0.81401    0.87370    1.000
    Si5862   Si       0.94047    0.88876    0.80239    1.000
    N5863    N        0.95364    0.92286    0.82520    1.000
    Si5864   Si       0.95094    0.96601    0.81736    1.000
    Si5865   Si       0.97565    0.90736    0.86164    1.000
    N5866    N        0.94294    0.97173    0.77582    1.000
    N5867    N        0.98414    0.98947    0.82941    1.000
    Si5868   Si       0.94123    0.77235    0.87723    1.000
    Si5869   Si       0.97290    0.83978    0.88562    1.000
    N5870    N        0.96734    0.82582    0.92798    1.000
    Si5871   Si       0.97492    0.86365    0.94967    1.000
    Si5872   Si       0.95332    0.79031    0.94817    1.000
    N5873    N        0.96938    0.86344    0.99303    1.000
    N5874    N        0.98729    0.88460    0.90204    1.000
    N5875    N        0.94077    0.89371    0.94384    1.000
    Si5876   Si       0.93034    0.99041    0.96723    1.000
    N5877    N        0.95962    0.96136    0.94877    1.000
    N5878    N        0.94990    0.93409    0.88809    1.000
    Si5879   Si       0.96835    0.92460    0.92575    1.000
