# CIF file generated by openbabel 3.1.1, see https://openbabel.org
data_I
_chemical_name_common '3.01-7.aims'
_cell_length_a 39.9357
_cell_length_b 39.9357
_cell_length_c 39.9357
_cell_angle_alpha 90
_cell_angle_beta 90
_cell_angle_gamma 90
loop_
    _atom_site_label
    _atom_site_type_symbol
    _atom_site_fract_x
    _atom_site_fract_y
    _atom_site_fract_z
    _atom_site_occupancy
    N0       N        0.07354    0.02419    0.07656    1.000
    N1       N        0.02763    0.02954    0.02610    1.000
    Si2      Si       0.04746    0.05600    0.99874    1.000
    Si3      Si       0.08643    0.06330    0.06276    1.000
    Si4      Si       0.06067    0.02196    0.11788    1.000
    N5       N        0.02316    0.04409    0.11670    1.000
    N6       N        0.08477    0.06631    0.01910    1.000
    N7       N        0.22000    0.05739    0.02509    1.000
    N8       N        0.20333    0.05622    0.08952    1.000
    Si9      Si       0.18772    0.01513    0.08826    1.000
    Si10     Si       0.21548    0.01693    0.01495    1.000
    Si11     Si       0.12769    0.04896    0.11367    1.000
    N12      N        0.14466    0.01189    0.09589    1.000
    N13      N        0.09292    0.04061    0.13857    1.000
    Si14     Si       0.09370    0.03951    0.18256    1.000
    N15      N        0.13230    0.02287    0.19620    1.000
    Si16     Si       0.16575    0.04700    0.18419    1.000
    N17      N        0.20423    0.02670    0.18664    1.000
    N18      N        0.15971    0.05829    0.14167    1.000
    N19      N        0.07261    0.04481    0.26863    1.000
    Si20     Si       0.01184    0.03407    0.34628    1.000
    N21      N        0.05252    0.03190    0.36225    1.000
    Si22     Si       0.04108    0.01413    0.27170    1.000
    Si23     Si       0.08765    0.02027    0.34261    1.000
    N24      N        0.11427    0.04854    0.32253    1.000
    N25      N        0.00715    0.02256    0.24666    1.000
    Si26     Si       0.11611    0.04645    0.27945    1.000
    Si27     Si       0.14045    0.05246    0.35824    1.000
    N28      N        0.17545    0.03235    0.34345    1.000
    Si29     Si       0.18936    0.03887    0.30264    1.000
    N30      N        0.22830    0.05328    0.29805    1.000
    N31      N        0.16096    0.05476    0.27371    1.000
    Si32     Si       0.07408    0.04032    0.39760    1.000
    N33      N        0.06166    0.05713    0.47756    1.000
    Si34     Si       0.07189    0.01775    0.46185    1.000
    N35      N        0.05340    0.01423    0.42307    1.000
    N36      N        0.00110    0.03369    0.49091    1.000
    N37      N        0.11233    0.02424    0.38025    1.000
    N38      N        0.11348    0.01408    0.44809    1.000
    Si39     Si       0.13752    0.02908    0.48031    1.000
    Si40     Si       0.20783    0.05658    0.46433    1.000
    N41      N        0.17806    0.02456    0.46578    1.000
    Si42     Si       0.06265    0.04198    0.58497    1.000
    N43      N        0.10317    0.05741    0.57505    1.000
    Si44     Si       0.99200    0.06462    0.57745    1.000
    Si45     Si       0.14077    0.04009    0.59163    1.000
    Si46     Si       0.20979    0.02077    0.56893    1.000
    N47      N        0.16872    0.01296    0.56781    1.000
    N48      N        0.22937    0.06243    0.50178    1.000
    N49      N        0.22683    0.00820    0.60535    1.000
    N50      N        0.20974    0.06557    0.56628    1.000
    N51      N        0.04329    0.03479    0.62365    1.000
    N52      N        0.99437    0.05426    0.67956    1.000
    Si53     Si       0.08952    0.05726    0.68110    1.000
    N54      N        0.04255    0.02649    0.72944    1.000
    N55      N        0.08336    0.01410    0.67441    1.000
    Si56     Si       0.01403    0.06115    0.64251    1.000
    N57      N        0.11359    0.06275    0.71828    1.000
    Si58     Si       0.02662    0.06512    0.71366    1.000
    N59      N        0.16835    0.06072    0.61738    1.000
    N60      N        0.17909    0.02731    0.73403    1.000
    Si61     Si       0.13967    0.02537    0.71935    1.000
    Si62     Si       0.20553    0.04583    0.70426    1.000
    N63      N        0.21658    0.01794    0.67263    1.000
    N64      N        0.14672    0.02512    0.67580    1.000
    Si65     Si       0.15396    0.06361    0.65708    1.000
    N66      N        0.08580    0.03175    0.84543    1.000
    Si67     Si       0.03854    0.01776    0.77060    1.000
    N68      N        0.03931    0.05576    0.79510    1.000
    N69      N        0.00669    0.06075    0.86326    1.000
    Si70     Si       0.07373    0.06370    0.81955    1.000
    Si71     Si       0.19140    0.02279    0.77471    1.000
    Si72     Si       0.20068    0.04711    0.85876    1.000
    N73      N        0.17576    0.05721    0.79572    1.000
    N74      N        0.23814    0.02395    0.77762    1.000
    N75      N        0.21225    0.00930    0.83745    1.000
    Si76     Si       0.01492    0.01919    0.87251    1.000
    N77      N        0.04745    0.02205    0.89928    1.000
    Si78     Si       0.03523    0.04901    0.93121    1.000
    N79      N        0.05696    0.03043    0.96566    1.000
    Si80     Si       0.08947    0.02644    0.88913    1.000
    N81      N        0.99351    0.03829    0.94592    1.000
    N82      N        0.10385    0.06292    0.90691    1.000
    N83      N        0.15888    0.03847    0.87050    1.000
    Si84     Si       0.21246    0.02432    0.93501    1.000
    N85      N        0.19551    0.01634    0.97734    1.000
    N86      N        0.21138    0.05208    0.90100    1.000
    N87      N        0.05770    0.09409    0.07341    1.000
    Si88     Si       0.02873    0.08585    0.10672    1.000
    Si89     Si       0.11283    0.09163    0.99709    1.000
    N90      N        0.12349    0.07921    0.08213    1.000
    Si91     Si       0.12888    0.12053    0.06462    1.000
    N92      N        0.19498    0.11780    0.01194    1.000
    Si93     Si       0.18964    0.07683    0.99940    1.000
    N94      N        0.12149    0.12446    0.02223    1.000
    Si95     Si       0.06797    0.11043    0.17385    1.000
    N96      N        0.07544    0.07526    0.19918    1.000
    N97      N        0.04319    0.11347    0.13693    1.000
    Si98     Si       0.07127    0.07962    0.24193    1.000
    N99      N        0.03067    0.09639    0.24605    1.000
    Si100    Si       0.99587    0.06955    0.24442    1.000
    N101     N        0.18452    0.12096    0.13813    1.000
    Si102    Si       0.19493    0.08072    0.12534    1.000
    N103     N        0.17333    0.08389    0.20660    1.000
    Si104    Si       0.18811    0.11866    0.18427    1.000
    N105     N        0.23207    0.07486    0.14771    1.000
    Si106    Si       0.00278    0.11795    0.36377    1.000
    N107     N        0.00414    0.07443    0.36098    1.000
    N108     N        0.11215    0.08959    0.25673    1.000
    N109     N        0.19490    0.11167    0.32971    1.000
    Si110    Si       0.17496    0.12388    0.36724    1.000
    Si111    Si       0.15652    0.09036    0.24688    1.000
    Si112    Si       0.23364    0.09296    0.31266    1.000
    N113     N        0.06233    0.11856    0.46094    1.000
    N114     N        0.00945    0.08811    0.44113    1.000
    Si115    Si       0.04615    0.10443    0.42206    1.000
    N116     N        0.07996    0.08235    0.40592    1.000
    Si117    Si       0.08782    0.09273    0.48710    1.000
    Si118    Si       0.02151    0.07011    0.47828    1.000
    Si119    Si       0.11150    0.10974    0.39270    1.000
    N120     N        0.12259    0.06788    0.49022    1.000
    N121     N        0.20028    0.12522    0.40390    1.000
    N122     N        0.14653    0.09146    0.37429    1.000
    N123     N        0.18275    0.09211    0.46656    1.000
    Si124    Si       0.03941    0.10706    0.54544    1.000
    N125     N        0.07908    0.10815    0.52904    1.000
    N126     N        0.01617    0.10405    0.50670    1.000
    N127     N        0.10589    0.12429    0.59382    1.000
    N128     N        0.03336    0.06804    0.56573    1.000
    Si129    Si       0.11200    0.09808    0.55892    1.000
    N130     N        0.15260    0.10381    0.54016    1.000
    Si131    Si       0.19431    0.10610    0.55621    1.000
    Si132    Si       0.20620    0.07805    0.60827    1.000
    N133     N        0.19914    0.11905    0.59776    1.000
    Si134    Si       0.14995    0.10070    0.49513    1.000
    N135     N        0.01816    0.10398    0.63409    1.000
    N136     N        0.11339    0.07513    0.65115    1.000
    N137     N        0.99426    0.08798    0.73708    1.000
    Si138    Si       0.11189    0.11687    0.63558    1.000
    N139     N        0.05618    0.09301    0.74184    1.000
    Si140    Si       0.04756    0.11835    0.66487    1.000
    N141     N        0.05228    0.07792    0.67987    1.000
    N142     N        0.18280    0.08032    0.68615    1.000
    Si143    Si       0.01998    0.08986    0.77552    1.000
    N144     N        0.06672    0.09593    0.84805    1.000
    Si145    Si       0.09750    0.08452    0.75157    1.000
    Si146    Si       0.10086    0.12207    0.85491    1.000
    N147     N        0.10386    0.07243    0.79202    1.000
    N148     N        0.16349    0.11937    0.79147    1.000
    N149     N        0.21191    0.08368    0.84118    1.000
    N150     N        0.13287    0.09327    0.84702    1.000
    Si151    Si       0.14281    0.08254    0.80748    1.000
    Si152    Si       0.19989    0.09295    0.79931    1.000
    N153     N        0.23290    0.10503    0.77444    1.000
    Si154    Si       0.22564    0.12344    0.85686    1.000
    Si155    Si       0.03171    0.09330    0.87297    1.000
    Si156    Si       0.08456    0.09890    0.92270    1.000
    N157     N        0.04277    0.08914    0.91394    1.000
    N158     N        0.08325    0.10489    0.96606    1.000
    Si159    Si       0.04946    0.12264    0.98440    1.000
    N160     N        0.02408    0.08971    0.99174    1.000
    N161     N        0.14806    0.06916    0.99202    1.000
    N162     N        0.20852    0.08619    0.96032    1.000
    Si163    Si       0.20057    0.08982    0.91853    1.000
    Si164    Si       0.13959    0.07460    0.88524    1.000
    N165     N        0.22783    0.11869    0.90054    1.000
    N166     N        0.16100    0.10256    0.91067    1.000
    Si167    Si       0.22596    0.12246    0.97883    1.000
    N168     N        0.02569    0.15125    0.08505    1.000
    N169     N        0.09820    0.15068    0.08025    1.000
    N170     N        0.05240    0.14386    0.02337    1.000
    Si171    Si       0.06208    0.13639    0.06412    1.000
    Si172    Si       0.10221    0.18113    0.11049    1.000
    Si173    Si       0.99077    0.13582    0.06635    1.000
    Si174    Si       0.05094    0.18338    0.00367    1.000
    N175     N        0.16720    0.13822    0.07149    1.000
    Si176    Si       0.18922    0.15218    0.03761    1.000
    N177     N        0.22923    0.16282    0.04569    1.000
    Si178    Si       0.17574    0.15451    0.11250    1.000
    Si179    Si       0.12451    0.16223    0.00088    1.000
    N180     N        0.21323    0.17645    0.10907    1.000
    N181     N        0.16288    0.17912    0.01295    1.000
    N182     N        0.99668    0.17259    0.14607    1.000
    Si183    Si       0.03263    0.15343    0.12845    1.000
    Si184    Si       0.02417    0.13641    0.23241    1.000
    N185     N        0.04922    0.14245    0.19739    1.000
    Si186    Si       0.06697    0.17905    0.18492    1.000
    N187     N        0.06633    0.18059    0.13780    1.000
    N188     N        0.10836    0.12423    0.16222    1.000
    N189     N        0.21287    0.18448    0.23505    1.000
    N190     N        0.22884    0.13106    0.18712    1.000
    N191     N        0.16370    0.15239    0.19673    1.000
    N192     N        0.14102    0.17561    0.12780    1.000
    Si193    Si       0.17277    0.16396    0.23787    1.000
    Si194    Si       0.13131    0.16029    0.16851    1.000
    N195     N        0.02523    0.16715    0.26425    1.000
    Si196    Si       0.02117    0.16788    0.30726    1.000
    N197     N        0.09863    0.13967    0.36558    1.000
    N198     N        0.00345    0.13106    0.32185    1.000
    N199     N        0.05411    0.17712    0.33218    1.000
    Si200    Si       0.12257    0.17129    0.34704    1.000
    N201     N        0.16620    0.16551    0.35979    1.000
    Si202    Si       0.19593    0.13995    0.29661    1.000
    N203     N        0.17073    0.12875    0.26167    1.000
    N204     N        0.23710    0.17761    0.35966    1.000
    N205     N        0.19487    0.18403    0.30201    1.000
    N206     N        0.23554    0.12678    0.28239    1.000
    Si207    Si       0.06281    0.16674    0.37303    1.000
    Si208    Si       0.03061    0.13684    0.48250    1.000
    Si209    Si       0.00700    0.16681    0.41285    1.000
    N210     N        0.00480    0.15753    0.45560    1.000
    N211     N        0.03571    0.13200    0.38892    1.000
    Si212    Si       0.20011    0.12837    0.44885    1.000
    N213     N        0.22648    0.17714    0.43030    1.000
    Si214    Si       0.23212    0.15312    0.39536    1.000
    N215     N        0.12129    0.13198    0.49088    1.000
    N216     N        0.17858    0.16014    0.46753    1.000
    N217     N        0.12538    0.13295    0.42719    1.000
    Si218    Si       0.13423    0.16532    0.45490    1.000
    Si219    Si       0.07857    0.15656    0.57995    1.000
    N220     N        0.03699    0.14062    0.57632    1.000
    N221     N        0.04719    0.16824    0.50649    1.000
    Si222    Si       0.09074    0.15936    0.50594    1.000
    N223     N        0.10084    0.17301    0.54498    1.000
    Si224    Si       0.99503    0.14209    0.58968    1.000
    N225     N        0.22286    0.12755    0.53298    1.000
    N226     N        0.01757    0.14575    0.68131    1.000
    N227     N        0.08215    0.14067    0.65627    1.000
    N228     N        0.05573    0.17773    0.73340    1.000
    Si229    Si       0.01580    0.17934    0.70870    1.000
    N230     N        0.16161    0.15179    0.71555    1.000
    N231     N        0.20880    0.14569    0.66565    1.000
    Si232    Si       0.23527    0.18027    0.66258    1.000
    Si233    Si       0.18605    0.14526    0.62849    1.000
    N234     N        0.15355    0.12546    0.64813    1.000
    Si235    Si       0.17664    0.12430    0.68508    1.000
    Si236    Si       0.02238    0.14804    0.82268    1.000
    Si237    Si       0.06322    0.13734    0.75394    1.000
    N238     N        0.04986    0.17811    0.83336    1.000
    N239     N        0.03564    0.12759    0.78729    1.000
    N240     N        0.10729    0.12974    0.75489    1.000
    N241     N        0.00724    0.12703    0.85739    1.000
    N242     N        0.11768    0.15636    0.83283    1.000
    Si243    Si       0.14840    0.14475    0.75643    1.000
    N244     N        0.19054    0.14679    0.84381    1.000
    Si245    Si       0.15729    0.15658    0.81745    1.000
    N246     N        0.23422    0.17231    0.77334    1.000
    N247     N        0.15976    0.18159    0.77988    1.000
    N248     N        0.02920    0.15803    0.96730    1.000
    Si249    Si       0.01279    0.16897    0.93004    1.000
    N250     N        0.04571    0.18097    0.90524    1.000
    N251     N        0.10292    0.12991    0.89762    1.000
    Si252    Si       0.18340    0.17929    0.87284    1.000
    Si253    Si       0.17640    0.17358    0.97180    1.000
    N254     N        0.15550    0.17637    0.90505    1.000
    N255     N        0.21392    0.15663    0.95772    1.000
    Si256    Si       0.13793    0.13929    0.92074    1.000
    N257     N        0.14291    0.14632    0.96256    1.000
    Si258    Si       0.23572    0.15934    0.92100    1.000
    N259     N        0.22182    0.18381    0.88870    1.000
    N260     N        0.09350    0.22197    0.09765    1.000
    N261     N        0.09294    0.18920    0.99418    1.000
    N262     N        0.02104    0.23448    0.12120    1.000
    N263     N        0.22406    0.23217    0.05700    1.000
    N264     N        0.14872    0.23605    0.05094    1.000
    Si265    Si       0.15335    0.23009    0.00325    1.000
    Si266    Si       0.23491    0.19597    0.07588    1.000
    Si267    Si       0.06209    0.22525    0.12700    1.000
    N268     N        0.04725    0.20962    0.20876    1.000
    N269     N        0.10813    0.18902    0.19069    1.000
    N270     N        0.16805    0.23632    0.18593    1.000
    Si271    Si       0.13599    0.21723    0.20785    1.000
    N272     N        0.14893    0.19908    0.24584    1.000
    Si273    Si       0.08057    0.21030    0.32183    1.000
    N274     N        0.06146    0.22204    0.28062    1.000
    Si275    Si       0.03176    0.20884    0.25077    1.000
    N276     N        0.99121    0.19789    0.32398    1.000
    N277     N        0.99778    0.23785    0.24656    1.000
    Si278    Si       0.98769    0.22169    0.36026    1.000
    N279     N        0.19455    0.23478    0.34277    1.000
    Si280    Si       0.15048    0.21210    0.28630    1.000
    Si281    Si       0.22534    0.20332    0.27388    1.000
    N282     N        0.12100    0.19234    0.31063    1.000
    Si283    Si       0.19848    0.19125    0.34336    1.000
    N284     N        0.22786    0.24479    0.28201    1.000
    N285     N        0.09982    0.20219    0.36895    1.000
    N286     N        0.10295    0.19028    0.47452    1.000
    N287     N        0.01004    0.23581    0.43924    1.000
    Si288    Si       0.04327    0.23334    0.40972    1.000
    Si289    Si       0.09358    0.23246    0.46964    1.000
    N290     N        0.04334    0.18961    0.40379    1.000
    N291     N        0.05743    0.24271    0.49370    1.000
    N292     N        0.08291    0.24348    0.42489    1.000
    Si293    Si       0.12017    0.22549    0.40050    1.000
    N294     N        0.19433    0.22331    0.47216    1.000
    N295     N        0.14359    0.20031    0.42626    1.000
    N296     N        0.20119    0.23272    0.41069    1.000
    Si297    Si       0.18758    0.19846    0.43516    1.000
    N298     N        0.04554    0.22798    0.55613    1.000
    Si299    Si       0.05792    0.22668    0.59631    1.000
    Si300    Si       0.03449    0.20933    0.51617    1.000
    N301     N        0.99444    0.21399    0.50376    1.000
    N302     N        0.07781    0.18910    0.60922    1.000
    N303     N        0.02043    0.22378    0.61783    1.000
    Si304    Si       0.12796    0.20659    0.54739    1.000
    Si305    Si       0.22320    0.21063    0.60143    1.000
    N306     N        0.13749    0.22010    0.58769    1.000
    N307     N        0.16538    0.20640    0.52477    1.000
    N308     N        0.18683    0.18560    0.61512    1.000
    N309     N        0.23746    0.19027    0.51324    1.000
    Si310    Si       0.19684    0.18634    0.49971    1.000
    Si311    Si       0.16698    0.24241    0.50066    1.000
    N312     N        0.00677    0.21815    0.69353    1.000
    N313     N        0.06548    0.21275    0.67483    1.000
    Si314    Si       0.07627    0.21552    0.72116    1.000
    Si315    Si       0.03080    0.23741    0.66062    1.000
    Si316    Si       0.08894    0.18437    0.65152    1.000
    N317     N        0.11848    0.20483    0.73040    1.000
    Si318    Si       0.14823    0.19144    0.70112    1.000
    N319     N        0.23596    0.21875    0.64270    1.000
    N320     N        0.17786    0.22536    0.69913    1.000
    Si321    Si       0.15436    0.21070    0.62722    1.000
    Si322    Si       0.21775    0.23233    0.71183    1.000
    N323     N        0.13174    0.19279    0.66122    1.000
    N324     N        0.09633    0.21824    0.79721    1.000
    Si325    Si       0.01580    0.20655    0.83213    1.000
    Si326    Si       0.09010    0.19164    0.83214    1.000
    N327     N        0.10071    0.21602    0.86829    1.000
    N328     N        0.02330    0.23799    0.80425    1.000
    N329     N        0.99251    0.21352    0.86596    1.000
    Si330    Si       0.20044    0.19816    0.77327    1.000
    Si331    Si       0.13094    0.21572    0.77069    1.000
    N332     N        0.16751    0.20581    0.84124    1.000
    Si333    Si       0.14018    0.23371    0.86122    1.000
    N334     N        0.21369    0.23461    0.75647    1.000
    Si335    Si       0.00193    0.23351    0.90353    1.000
    N336     N        0.10043    0.21685    0.93540    1.000
    Si337    Si       0.08417    0.22919    0.97585    1.000
    Si338    Si       0.07205    0.21410    0.90075    1.000
    Si339    Si       0.00088    0.22554    0.98043    1.000
    N340     N        0.99388    0.20815    0.93914    1.000
    N341     N        0.04361    0.22561    0.99211    1.000
    Si342    Si       0.14302    0.21214    0.92617    1.000
    N343     N        0.16433    0.21393    0.96080    1.000
    N344     N        0.15523    0.24306    0.89943    1.000
    Si345    Si       0.01310    0.27235    0.10071    1.000
    N346     N        0.10722    0.28979    0.05615    1.000
    N347     N        0.99411    0.26919    0.06195    1.000
    N348     N        0.04622    0.29705    0.09024    1.000
    N349     N        0.03741    0.29837    0.02254    1.000
    Si350    Si       0.11875    0.25339    0.07755    1.000
    Si351    Si       0.18909    0.25395    0.04958    1.000
    N352     N        0.18799    0.25975    0.00648    1.000
    N353     N        0.19120    0.29051    0.07044    1.000
    N354     N        0.13442    0.27305    0.11363    1.000
    Si355    Si       0.16647    0.30179    0.10556    1.000
    Si356    Si       0.00966    0.27446    0.22615    1.000
    Si357    Si       0.09363    0.28940    0.23186    1.000
    N358     N        0.05221    0.27508    0.22169    1.000
    N359     N        0.08026    0.24647    0.15870    1.000
    Si360    Si       0.10934    0.28012    0.14823    1.000
    N361     N        0.10975    0.25030    0.21915    1.000
    Si362    Si       0.07082    0.24270    0.20088    1.000
    N363     N        0.98894    0.27545    0.18923    1.000
    N364     N        0.99898    0.30444    0.12872    1.000
    N365     N        0.19817    0.29159    0.21302    1.000
    N366     N        0.19359    0.29078    0.13929    1.000
    N367     N        0.13966    0.29847    0.17512    1.000
    Si368    Si       0.23571    0.29174    0.13694    1.000
    Si369    Si       0.17639    0.27696    0.17852    1.000
    Si370    Si       0.06581    0.26468    0.29166    1.000
    Si371    Si       0.04327    0.28100    0.35197    1.000
    N372     N        0.03539    0.28957    0.30837    1.000
    N373     N        0.09587    0.28934    0.27465    1.000
    N374     N        0.08222    0.25423    0.33162    1.000
    Si375    Si       0.11037    0.27901    0.35355    1.000
    Si376    Si       0.19677    0.26058    0.30758    1.000
    N377     N        0.15625    0.25472    0.29201    1.000
    Si378    Si       0.13685    0.29441    0.28852    1.000
    N379     N        0.20022    0.30255    0.29580    1.000
    N380     N        0.02257    0.24831    0.37254    1.000
    Si381    Si       0.02640    0.26356    0.46877    1.000
    Si382    Si       0.08145    0.28634    0.42196    1.000
    N383     N        0.04424    0.29259    0.44296    1.000
    N384     N        0.07718    0.29565    0.37844    1.000
    N385     N        0.24108    0.29127    0.44113    1.000
    Si386    Si       0.14110    0.29204    0.46507    1.000
    Si387    Si       0.21772    0.25451    0.44837    1.000
    N388     N        0.18084    0.28528    0.45466    1.000
    Si389    Si       0.18313    0.25507    0.37885    1.000
    N390     N        0.12995    0.25334    0.47902    1.000
    N391     N        0.13934    0.25728    0.38010    1.000
    N392     N        0.20325    0.29256    0.37784    1.000
    N393     N        0.08094    0.26438    0.60395    1.000
    Si394    Si       0.06849    0.25718    0.53488    1.000
    N395     N        0.05890    0.29779    0.54036    1.000
    N396     N        0.10945    0.24666    0.54326    1.000
    N397     N        0.00049    0.28138    0.49976    1.000
    Si398    Si       0.11969    0.26028    0.58275    1.000
    N399     N        0.18935    0.27318    0.52368    1.000
    Si400    Si       0.22425    0.27114    0.54891    1.000
    N401     N        0.14654    0.29176    0.58810    1.000
    Si402    Si       0.18148    0.27713    0.61098    1.000
    N403     N        0.21064    0.25077    0.58763    1.000
    Si404    Si       0.04262    0.28359    0.73939    1.000
    N405     N        0.00437    0.27938    0.71961    1.000
    N406     N        0.03903    0.28357    0.65571    1.000
    Si407    Si       0.00483    0.29898    0.68076    1.000
    Si408    Si       0.06741    0.30084    0.62731    1.000
    N409     N        0.16490    0.25190    0.64083    1.000
    Si410    Si       0.15844    0.26072    0.68225    1.000
    N411     N        0.11779    0.26812    0.68982    1.000
    N412     N        0.18161    0.29737    0.68888    1.000
    N413     N        0.07387    0.28232    0.81680    1.000
    Si414    Si       0.09958    0.29121    0.85038    1.000
    Si415    Si       0.06459    0.24658    0.79149    1.000
    N416     N        0.06362    0.24708    0.74680    1.000
    N417     N        0.13533    0.27088    0.84034    1.000
    Si418    Si       0.15777    0.28211    0.80283    1.000
    N419     N        0.20091    0.28214    0.80952    1.000
    Si420    Si       0.21250    0.28878    0.85012    1.000
    Si421    Si       0.22642    0.27034    0.77715    1.000
    N422     N        0.14452    0.25539    0.77297    1.000
    N423     N        0.04329    0.24609    0.90281    1.000
    N424     N        0.99877    0.26718    0.97118    1.000
    Si425    Si       0.05788    0.28369    0.91887    1.000
    N426     N        0.06991    0.27326    0.96013    1.000
    Si427    Si       0.03891    0.27310    0.98906    1.000
    Si428    Si       0.10947    0.28782    0.96999    1.000
    N429     N        0.08588    0.30032    0.89023    1.000
    Si430    Si       0.17070    0.28045    0.91177    1.000
    N431     N        0.20561    0.27209    0.93594    1.000
    N432     N        0.22622    0.25212    0.87094    1.000
    Si433    Si       0.21684    0.26926    0.97674    1.000
    N434     N        0.11923    0.25151    0.99101    1.000
    N435     N        0.14085    0.29657    0.93845    1.000
    N436     N        0.08263    0.34509    0.05156    1.000
    Si437    Si       0.99728    0.30726    0.04088    1.000
    Si438    Si       0.06590    0.30454    0.05351    1.000
    N439     N        0.98545    0.34197    0.06592    1.000
    N440     N        0.14500    0.35131    0.03118    1.000
    N441     N        0.21947    0.34944    0.04343    1.000
    Si442    Si       0.12391    0.32799    0.06011    1.000
    N443     N        0.14524    0.34054    0.09703    1.000
    Si444    Si       0.22985    0.31013    0.06308    1.000
    Si445    Si       0.99395    0.31401    0.17082    1.000
    Si446    Si       0.04166    0.32347    0.12573    1.000
    N447     N        0.03176    0.33452    0.17326    1.000
    N448     N        0.09620    0.32680    0.21322    1.000
    N449     N        0.08110    0.31187    0.14201    1.000
    Si450    Si       0.07437    0.33811    0.17864    1.000
    Si451    Si       0.14059    0.32727    0.20873    1.000
    Si452    Si       0.01353    0.32180    0.28819    1.000
    N453     N        0.99923    0.31123    0.24767    1.000
    N454     N        0.02233    0.31976    0.36348    1.000
    N455     N        0.08592    0.35675    0.34368    1.000
    N456     N        0.03383    0.36042    0.28422    1.000
    Si457    Si       0.23236    0.32305    0.31921    1.000
    Si458    Si       0.12938    0.35040    0.34302    1.000
    N459     N        0.21295    0.34826    0.34879    1.000
    N460     N        0.13085    0.30779    0.32991    1.000
    Si461    Si       0.19584    0.31462    0.25255    1.000
    N462     N        0.15110    0.31373    0.25142    1.000
    N463     N        0.20457    0.35723    0.24738    1.000
    N464     N        0.99154    0.35299    0.42494    1.000
    Si465    Si       0.10078    0.35337    0.44425    1.000
    Si466    Si       0.05964    0.33666    0.37426    1.000
    N467     N        0.06381    0.35202    0.41774    1.000
    Si468    Si       0.02884    0.33573    0.44087    1.000
    N469     N        0.02100    0.34605    0.48292    1.000
    N470     N        0.11212    0.30998    0.43782    1.000
    Si471    Si       0.20898    0.31886    0.45326    1.000
    N472     N        0.20429    0.34847    0.42293    1.000
    Si473    Si       0.22042    0.33040    0.38728    1.000
    N474     N        0.21298    0.33244    0.49476    1.000
    N475     N        0.05145    0.33165    0.60011    1.000
    Si476    Si       0.06721    0.33335    0.56053    1.000
    N477     N        0.10793    0.34275    0.55349    1.000
    N478     N        0.04171    0.36492    0.54150    1.000
    Si479    Si       0.14287    0.33287    0.57588    1.000
    N480     N        0.17678    0.34285    0.55139    1.000
    Si481    Si       0.18017    0.31440    0.51954    1.000
    Si482    Si       0.12086    0.35456    0.51365    1.000
    N483     N        0.14307    0.32055    0.49803    1.000
    N484     N        0.14600    0.35867    0.60942    1.000
    N485     N        0.98906    0.33697    0.68842    1.000
    N486     N        0.06567    0.30908    0.71464    1.000
    N487     N        0.09823    0.32186    0.65085    1.000
    Si488    Si       0.08206    0.34318    0.73766    1.000
    Si489    Si       0.10038    0.30557    0.68963    1.000
    N490     N        0.22802    0.33957    0.68597    1.000
    N491     N        0.12079    0.33986    0.71576    1.000
    N492     N        0.18483    0.36277    0.74425    1.000
    Si493    Si       0.12481    0.35560    0.64684    1.000
    Si494    Si       0.18937    0.33189    0.66265    1.000
    N495     N        0.20303    0.31245    0.62443    1.000
    Si496    Si       0.22019    0.30492    0.70992    1.000
    Si497    Si       0.06209    0.32303    0.80635    1.000
    N498     N        0.08936    0.34381    0.77916    1.000
    Si499    Si       0.99958    0.32792    0.78858    1.000
    N500     N        0.09989    0.33474    0.84042    1.000
    N501     N        0.02311    0.35219    0.81902    1.000
    N502     N        0.03702    0.30837    0.77440    1.000
    Si503    Si       0.19160    0.33456    0.77577    1.000
    N504     N        0.15187    0.32377    0.79204    1.000
    Si505    Si       0.12153    0.34989    0.80728    1.000
    N506     N        0.21245    0.35864    0.80782    1.000
    N507     N        0.21881    0.30736    0.75471    1.000
    Si508    Si       0.09239    0.34689    0.88251    1.000
    N509     N        0.02477    0.31182    0.92335    1.000
    Si510    Si       0.01829    0.35137    0.90717    1.000
    N511     N        0.10632    0.33102    0.97738    1.000
    N512     N        0.18414    0.30706    0.88002    1.000
    Si513    Si       0.13803    0.33989    0.94521    1.000
    N514     N        0.23303    0.31240    0.97835    1.000
    N515     N        0.23238    0.34747    0.90683    1.000
    Si516    Si       0.22461    0.34230    0.95049    1.000
    Si517    Si       0.19037    0.34941    0.89713    1.000
    N518     N        0.18142    0.35144    0.94319    1.000
    N519     N        0.03327    0.39361    0.05553    1.000
    Si520    Si       0.07617    0.38763    0.05607    1.000
    N521     N        0.08971    0.40021    0.01495    1.000
    N522     N        0.09989    0.39557    0.09082    1.000
    Si523    Si       0.01062    0.37209    0.08650    1.000
    N524     N        0.04361    0.36562    0.11368    1.000
    Si525    Si       0.11460    0.36534    0.00244    1.000
    Si526    Si       0.14169    0.38470    0.09947    1.000
    N527     N        0.16876    0.40012    0.07036    1.000
    N528     N        0.19460    0.39687    0.00708    1.000
    Si529    Si       0.18197    0.37233    0.04094    1.000
    Si530    Si       0.23753    0.37774    0.01127    1.000
    Si531    Si       0.07534    0.39669    0.12764    1.000
    N532     N        0.09106    0.37385    0.16217    1.000
    N533     N        0.98862    0.37798    0.23089    1.000
    Si534    Si       0.13011    0.39019    0.17216    1.000
    N535     N        0.20950    0.41487    0.20789    1.000
    N536     N        0.14905    0.40660    0.13783    1.000
    Si537    Si       0.18196    0.38733    0.22647    1.000
    N538     N        0.15553    0.36595    0.19713    1.000
    N539     N        0.09426    0.39824    0.28665    1.000
    Si540    Si       0.06425    0.37985    0.31253    1.000
    Si541    Si       0.00948    0.39256    0.26683    1.000
    N542     N        0.03689    0.41084    0.32819    1.000
    Si543    Si       0.99253    0.41014    0.33148    1.000
    N544     N        0.15394    0.37336    0.31407    1.000
    Si545    Si       0.18506    0.37969    0.34421    1.000
    Si546    Si       0.13785    0.40474    0.29091    1.000
    N547     N        0.15436    0.41028    0.25022    1.000
    N548     N        0.20379    0.41775    0.34488    1.000
    N549     N        0.03672    0.41221    0.47865    1.000
    N550     N        0.09008    0.36524    0.48676    1.000
    N551     N        0.15559    0.36967    0.37476    1.000
    Si552    Si       0.17349    0.37747    0.41390    1.000
    N553     N        0.13746    0.37950    0.43726    1.000
    N554     N        0.19959    0.41133    0.42780    1.000
    N555     N        0.05302    0.40526    0.59467    1.000
    Si556    Si       0.00085    0.36915    0.55510    1.000
    Si557    Si       0.03621    0.36968    0.61149    1.000
    N558     N        0.99496    0.36842    0.59705    1.000
    N559     N        0.99956    0.41295    0.54853    1.000
    Si560    Si       0.04865    0.37458    0.49979    1.000
    N561     N        0.22207    0.39532    0.52548    1.000
    Si562    Si       0.18374    0.38709    0.54443    1.000
    N563     N        0.14286    0.39252    0.52656    1.000
    Si564    Si       0.15353    0.40163    0.60780    1.000
    N565     N        0.18767    0.40778    0.58312    1.000
    Si566    Si       0.21518    0.42060    0.61523    1.000
    Si567    Si       0.99638    0.37688    0.67528    1.000
    Si568    Si       0.07003    0.39177    0.67845    1.000
    N569     N        0.00431    0.40414    0.70939    1.000
    N570     N        0.10125    0.39342    0.64849    1.000
    N571     N        0.03429    0.37691    0.65503    1.000
    N572     N        0.06688    0.38026    0.72074    1.000
    Si573    Si       0.04137    0.41525    0.72898    1.000
    Si574    Si       0.15238    0.36794    0.71569    1.000
    Si575    Si       0.21183    0.39494    0.73857    1.000
    N576     N        0.21237    0.40191    0.69570    1.000
    Si577    Si       0.17323    0.40946    0.67878    1.000
    N578     N        0.14704    0.41135    0.71447    1.000
    N579     N        0.16180    0.36541    0.67068    1.000
    N580     N        0.02234    0.40229    0.77079    1.000
    N581     N        0.00279    0.40743    0.83746    1.000
    Si582    Si       0.03488    0.39546    0.81084    1.000
    N583     N        0.07639    0.41283    0.81542    1.000
    N584     N        0.14275    0.38748    0.81476    1.000
    Si585    Si       0.18492    0.38767    0.82876    1.000
    N586     N        0.18327    0.38443    0.87220    1.000
    N587     N        0.05488    0.36800    0.88736    1.000
    N588     N        0.01276    0.38728    0.93046    1.000
    Si589    Si       0.04998    0.40611    0.91039    1.000
    N590     N        0.07591    0.40808    0.94594    1.000
    Si591    Si       0.11647    0.40005    0.93612    1.000
    N592     N        0.19491    0.41599    0.93256    1.000
    N593     N        0.23888    0.37915    0.96798    1.000
    Si594    Si       0.17957    0.38936    0.96517    1.000
    Si595    Si       0.23808    0.41875    0.94668    1.000
    N596     N        0.13701    0.38488    0.97012    1.000
    N597     N        0.11999    0.36199    0.91171    1.000
    N598     N        0.05018    0.46009    0.06415    1.000
    Si599    Si       0.02406    0.43402    0.04047    1.000
    Si600    Si       0.04740    0.46568    0.10768    1.000
    N601     N        0.03177    0.44179    0.99908    1.000
    N602     N        0.00579    0.45330    0.11929    1.000
    N603     N        0.20745    0.45674    0.04443    1.000
    Si604    Si       0.16887    0.44261    0.06644    1.000
    N605     N        0.13970    0.46215    0.04104    1.000
    N606     N        0.16768    0.46490    0.10277    1.000
    Si607    Si       0.20028    0.43919    0.00562    1.000
    N608     N        0.23682    0.42943    0.10838    1.000
    N609     N        0.01626    0.46604    0.18774    1.000
    N610     N        0.06943    0.43875    0.13349    1.000
    Si611    Si       0.09070    0.45260    0.17064    1.000
    Si612    Si       0.01790    0.45407    0.22847    1.000
    N613     N        0.19677    0.46173    0.16112    1.000
    Si614    Si       0.13541    0.44248    0.22783    1.000
    Si615    Si       0.20395    0.45822    0.20395    1.000
    N616     N        0.11656    0.42496    0.19267    1.000
    Si617    Si       0.23180    0.46193    0.13557    1.000
    N618     N        0.12500    0.47406    0.15235    1.000
    Si619    Si       0.15876    0.45135    0.14300    1.000
    N620     N        0.16578    0.47232    0.22066    1.000
    Si621    Si       0.04034    0.45558    0.33338    1.000
    N622     N        0.07785    0.45873    0.31073    1.000
    Si623    Si       0.07586    0.43572    0.27283    1.000
    N624     N        0.03742    0.42551    0.25721    1.000
    N625     N        0.10155    0.46011    0.24627    1.000
    N626     N        0.98960    0.45002    0.34648    1.000
    N627     N        0.11167    0.46454    0.36924    1.000
    Si628    Si       0.11679    0.46751    0.32705    1.000
    Si629    Si       0.18953    0.45201    0.32157    1.000
    N630     N        0.21462    0.45599    0.28477    1.000
    N631     N        0.14800    0.44231    0.31220    1.000
    N632     N        0.98764    0.46811    0.46504    1.000
    N633     N        0.04244    0.46272    0.37529    1.000
    Si634    Si       0.00122    0.45360    0.38734    1.000
    Si635    Si       0.07737    0.46111    0.39955    1.000
    Si636    Si       0.00001    0.42599    0.46162    1.000
    N637     N        0.08493    0.42466    0.42200    1.000
    Si638    Si       0.06966    0.44013    0.48966    1.000
    N639     N        0.99704    0.42174    0.41593    1.000
    Si640    Si       0.13975    0.46593    0.49457    1.000
    N641     N        0.18225    0.46575    0.48304    1.000
    N642     N        0.11173    0.43668    0.48042    1.000
    Si643    Si       0.18964    0.45228    0.43995    1.000
    N644     N        0.15034    0.45472    0.42489    1.000
    Si645    Si       0.12473    0.42194    0.44050    1.000
    Si646    Si       0.03902    0.42947    0.56074    1.000
    N647     N        0.07326    0.42952    0.53368    1.000
    N648     N        0.03233    0.47229    0.57297    1.000
    Si649    Si       0.08744    0.42098    0.61627    1.000
    Si650    Si       0.11646    0.42525    0.54392    1.000
    N651     N        0.13718    0.46293    0.53776    1.000
    N652     N        0.11999    0.42004    0.58727    1.000
    N653     N        0.06646    0.43386    0.69154    1.000
    Si654    Si       0.08325    0.46697    0.67127    1.000
    N655     N        0.07691    0.46067    0.63042    1.000
    N656     N        0.04236    0.45608    0.74641    1.000
    N657     N        0.23611    0.45630    0.61467    1.000
    N658     N        0.16375    0.47736    0.73339    1.000
    N659     N        0.17372    0.42926    0.64044    1.000
    N660     N        0.12670    0.47544    0.67254    1.000
    Si661    Si       0.15899    0.47306    0.64200    1.000
    Si662    Si       0.00443    0.45561    0.76692    1.000
    N663     N        0.01747    0.47117    0.80850    1.000
    Si664    Si       0.99489    0.45000    0.84316    1.000
    N665     N        0.13017    0.44831    0.78250    1.000
    Si666    Si       0.21222    0.44992    0.79164    1.000
    N667     N        0.13217    0.44332    0.85156    1.000
    N668     N        0.19456    0.42694    0.76146    1.000
    N669     N        0.20513    0.42635    0.82843    1.000
    Si670    Si       0.11823    0.42372    0.81491    1.000
    Si671    Si       0.15547    0.43756    0.74903    1.000
    N672     N        0.06541    0.44324    0.88914    1.000
    N673     N        0.10020    0.46216    0.97719    1.000
    Si674    Si       0.10687    0.45147    0.88657    1.000
    N675     N        0.00252    0.46611    0.88259    1.000
    Si676    Si       0.01241    0.47137    0.97255    1.000
    Si677    Si       0.07265    0.42850    0.98571    1.000
    Si678    Si       0.16702    0.45682    0.93720    1.000
    N679     N        0.18516    0.46388    0.88926    1.000
    Si680    Si       0.17261    0.41994    0.89259    1.000
    N681     N        0.16722    0.44987    0.98085    1.000
    N682     N        0.13644    0.43198    0.91496    1.000
    N683     N        0.23545    0.44624    0.98103    1.000
    Si684    Si       0.13479    0.47285    0.99954    1.000
    Si685    Si       0.05645    0.50015    0.04267    1.000
    N686     N        0.09620    0.51282    0.06203    1.000
    N687     N        0.01904    0.52011    0.05233    1.000
    N688     N        0.05827    0.50652    0.00180    1.000
    Si689    Si       0.08543    0.53101    0.09867    1.000
    Si690    Si       0.99205    0.53116    0.02051    1.000
    Si691    Si       0.02313    0.53565    0.09176    1.000
    N692     N        0.04999    0.50821    0.11420    1.000
    N693     N        0.17630    0.52020    0.06434    1.000
    Si694    Si       0.20789    0.50112    0.03963    1.000
    Si695    Si       0.13542    0.50606    0.05096    1.000
    Si696    Si       0.18720    0.50344    0.10577    1.000
    N697     N        0.13596    0.51690    0.00506    1.000
    N698     N        0.23021    0.49560    0.10844    1.000
    Si699    Si       0.03379    0.50692    0.19881    1.000
    N700     N        0.07540    0.48981    0.18841    1.000
    Si701    Si       0.08093    0.49626    0.23463    1.000
    N702     N        0.99974    0.53350    0.19429    1.000
    Si703    Si       0.10905    0.51218    0.16556    1.000
    N704     N        0.03686    0.49201    0.24142    1.000
    N705     N        0.18330    0.53359    0.13722    1.000
    N706     N        0.23081    0.48815    0.22437    1.000
    N707     N        0.12698    0.52519    0.20259    1.000
    Si708    Si       0.16437    0.51617    0.22270    1.000
    N709     N        0.02414    0.49320    0.31630    1.000
    Si710    Si       0.01341    0.50795    0.27553    1.000
    N711     N        0.09363    0.52986    0.25763    1.000
    Si712    Si       0.03035    0.53513    0.32963    1.000
    N713     N        0.12904    0.50863    0.31770    1.000
    N714     N        0.17558    0.52106    0.26450    1.000
    Si715    Si       0.21304    0.49694    0.26316    1.000
    Si716    Si       0.16272    0.51818    0.34199    1.000
    N717     N        0.19497    0.48783    0.34519    1.000
    N718     N        0.23591    0.52091    0.29034    1.000
    Si719    Si       0.02084    0.49831    0.47105    1.000
    N720     N        0.09269    0.49512    0.42134    1.000
    Si721    Si       0.08939    0.50887    0.46277    1.000
    N722     N        0.02757    0.52460    0.43576    1.000
    Si723    Si       0.00315    0.52780    0.39683    1.000
    N724     N        0.05925    0.47941    0.47623    1.000
    N725     N        0.15060    0.52145    0.38371    1.000
    N726     N        0.21576    0.48592    0.42373    1.000
    N727     N        0.12696    0.50712    0.48494    1.000
    Si728    Si       0.22431    0.48846    0.38164    1.000
    Si729    Si       0.13337    0.48516    0.40223    1.000
    N730     N        0.01548    0.51464    0.51137    1.000
    Si731    Si       0.05452    0.49180    0.60608    1.000
    Si732    Si       0.00113    0.49360    0.54903    1.000
    N733     N        0.08253    0.52344    0.60094    1.000
    N734     N        0.19845    0.49643    0.54609    1.000
    Si735    Si       0.15839    0.49174    0.56072    1.000
    N736     N        0.14877    0.49363    0.60582    1.000
    N737     N        0.13463    0.52767    0.55230    1.000
    Si738    Si       0.20287    0.49648    0.50417    1.000
    Si739    Si       0.12495    0.52923    0.59576    1.000
    N740     N        0.23160    0.52291    0.60315    1.000
    Si741    Si       0.23428    0.51411    0.56110    1.000
    Si742    Si       0.14254    0.53769    0.51002    1.000
    N743     N        0.18680    0.53714    0.49724    1.000
    N744     N        0.02495    0.50926    0.63450    1.000
    N745     N        0.06297    0.49907    0.68843    1.000
    Si746    Si       0.05972    0.49228    0.73156    1.000
    Si747    Si       0.99788    0.52769    0.74083    1.000
    Si748    Si       0.03977    0.52927    0.67031    1.000
    N749     N        0.10176    0.49407    0.74033    1.000
    Si750    Si       0.18769    0.52790    0.68933    1.000
    N751     N        0.20733    0.52711    0.72878    1.000
    N752     N        0.19272    0.49461    0.65919    1.000
    N753     N        0.14810    0.53572    0.70429    1.000
    Si754    Si       0.13098    0.49668    0.70977    1.000
    Si755    Si       0.23111    0.49524    0.63732    1.000
    N756     N        0.08533    0.49957    0.81044    1.000
    Si757    Si       0.04373    0.50527    0.79848    1.000
    Si758    Si       0.09123    0.51563    0.85082    1.000
    N759     N        0.03708    0.52019    0.75679    1.000
    Si760    Si       0.11832    0.49043    0.78113    1.000
    Si761    Si       0.20331    0.52337    0.82089    1.000
    N762     N        0.16923    0.51634    0.84654    1.000
    N763     N        0.14571    0.52592    0.77908    1.000
    Si764    Si       0.18178    0.51034    0.75951    1.000
    N765     N        0.19841    0.48872    0.79384    1.000
    N766     N        0.23196    0.51652    0.85519    1.000
    Si767    Si       0.15464    0.48145    0.86457    1.000
    N768     N        0.05114    0.51457    0.87029    1.000
    Si769    Si       0.07591    0.49615    0.96385    1.000
    N770     N        0.09305    0.52933    0.93981    1.000
    N771     N        0.04101    0.48323    0.94059    1.000
    N772     N        0.11665    0.49443    0.88277    1.000
    Si773    Si       0.04247    0.47973    0.89421    1.000
    N774     N        0.20582    0.50808    0.99383    1.000
    N775     N        0.23946    0.49631    0.92849    1.000
    Si776    Si       0.17004    0.52201    0.97623    1.000
    N777     N        0.15685    0.49855    0.94239    1.000
    Si778    Si       0.13007    0.52035    0.91860    1.000
    Si779    Si       0.22708    0.48554    0.88768    1.000
    N780     N        0.05836    0.56131    0.08315    1.000
    N781     N        0.99410    0.56430    0.99317    1.000
    N782     N        0.99565    0.56024    0.11336    1.000
    Si783    Si       0.17205    0.56388    0.05903    1.000
    N784     N        0.20539    0.58462    0.04144    1.000
    N785     N        0.15660    0.58243    0.09623    1.000
    N786     N        0.13897    0.58008    0.03600    1.000
    Si787    Si       0.12785    0.56278    0.99839    1.000
    Si788    Si       0.02130    0.56930    0.20376    1.000
    Si789    Si       0.09998    0.55543    0.21983    1.000
    N790     N        0.05970    0.54876    0.20497    1.000
    N791     N        0.11206    0.53951    0.13294    1.000
    N792     N        0.00599    0.59534    0.23593    1.000
    Si793    Si       0.15087    0.56320    0.13442    1.000
    N794     N        0.18739    0.54751    0.20305    1.000
    Si795    Si       0.21108    0.54657    0.16746    1.000
    Si796    Si       0.16728    0.58916    0.20998    1.000
    N797     N        0.22371    0.58707    0.15369    1.000
    N798     N        0.12553    0.58929    0.22250    1.000
    N799     N        0.01563    0.54903    0.28904    1.000
    Si800    Si       0.07173    0.56906    0.36188    1.000
    N801     N        0.07287    0.55000    0.32353    1.000
    Si802    Si       0.01080    0.59108    0.28077    1.000
    Si803    Si       0.10491    0.54013    0.29807    1.000
    N804     N        0.12983    0.57558    0.29773    1.000
    Si805    Si       0.16876    0.56118    0.28398    1.000
    N806     N        0.18575    0.55629    0.32529    1.000
    N807     N        0.18495    0.58988    0.25648    1.000
    Si808    Si       0.22553    0.53447    0.33036    1.000
    Si809    Si       0.17747    0.59704    0.34301    1.000
    Si810    Si       0.05888    0.55202    0.42310    1.000
    N811     N        0.08173    0.55096    0.46348    1.000
    N812     N        0.09399    0.56461    0.39723    1.000
    Si813    Si       0.08896    0.58662    0.48776    1.000
    N814     N        0.04395    0.59232    0.43226    1.000
    N815     N        0.99092    0.56985    0.47648    1.000
    N816     N        0.03978    0.54182    0.37459    1.000
    N817     N        0.14782    0.58965    0.37237    1.000
    Si818    Si       0.13704    0.55779    0.39952    1.000
    Si819    Si       0.19758    0.56379    0.45916    1.000
    N820     N        0.16441    0.57065    0.43203    1.000
    N821     N        0.23645    0.55001    0.44736    1.000
    N822     N        0.19844    0.59800    0.48619    1.000
    Si823    Si       0.01381    0.55851    0.51171    1.000
    N824     N        0.00332    0.57340    0.54863    1.000
    N825     N        0.04730    0.58763    0.50214    1.000
    Si826    Si       0.07867    0.56528    0.61647    1.000
    N827     N        0.12215    0.56973    0.61457    1.000
    Si828    Si       0.20702    0.56776    0.52045    1.000
    N829     N        0.19043    0.58849    0.55412    1.000
    N830     N        0.13026    0.57850    0.50449    1.000
    N831     N        0.06346    0.56475    0.65747    1.000
    N832     N        0.08122    0.58328    0.73087    1.000
    Si833    Si       0.08215    0.59070    0.68855    1.000
    N834     N        0.00663    0.53764    0.69821    1.000
    N835     N        0.12425    0.59561    0.67675    1.000
    N836     N        0.22974    0.59943    0.73789    1.000
    Si837    Si       0.15629    0.58197    0.70477    1.000
    N838     N        0.19399    0.56921    0.67545    1.000
    Si839    Si       0.00511    0.57182    0.79391    1.000
    N840     N        0.10849    0.55545    0.85190    1.000
    Si841    Si       0.02587    0.54725    0.85682    1.000
    N842     N        0.10777    0.58977    0.79525    1.000
    N843     N        0.03775    0.58935    0.86369    1.000
    N844     N        0.02300    0.53926    0.81488    1.000
    Si845    Si       0.23192    0.55598    0.74876    1.000
    N846     N        0.16737    0.57569    0.82139    1.000
    Si847    Si       0.14455    0.56969    0.78405    1.000
    N848     N        0.21451    0.55248    0.78893    1.000
    Si849    Si       0.15309    0.55629    0.85889    1.000
    Si850    Si       0.20640    0.58906    0.81180    1.000
    N851     N        0.16214    0.58844    0.74991    1.000
    N852     N        0.23953    0.58435    0.84097    1.000
    N853     N        0.09225    0.57905    0.98350    1.000
    Si854    Si       0.07823    0.56792    0.94392    1.000
    N855     N        0.03652    0.57524    0.93563    1.000
    Si856    Si       0.01224    0.59369    0.96506    1.000
    N857     N        0.16267    0.56477    0.97042    1.000
    N858     N        0.20834    0.59387    0.91264    1.000
    Si859    Si       0.17207    0.58062    0.93216    1.000
    N860     N        0.15183    0.55432    0.90311    1.000
    N861     N        0.03029    0.61890    0.09893    1.000
    N862     N        0.09766    0.61598    0.08312    1.000
    N863     N        0.05450    0.61588    0.03103    1.000
    Si864    Si       0.08306    0.64406    0.11417    1.000
    Si865    Si       0.05866    0.60146    0.06995    1.000
    Si866    Si       0.02723    0.65461    0.01329    1.000
    Si867    Si       0.07704    0.61919    0.99374    1.000
    N868     N        0.16544    0.63977    0.05846    1.000
    Si869    Si       0.13631    0.61066    0.07101    1.000
    Si870    Si       0.20048    0.62801    0.03355    1.000
    N871     N        0.23555    0.64578    0.04924    1.000
    Si872    Si       0.04421    0.63522    0.18590    1.000
    N873     N        0.06443    0.63311    0.22288    1.000
    N874     N        0.06864    0.64183    0.15341    1.000
    Si875    Si       0.10881    0.62971    0.22101    1.000
    Si876    Si       0.01023    0.59729    0.12957    1.000
    N877     N        0.02581    0.59751    0.17178    1.000
    Si878    Si       0.21247    0.62753    0.16679    1.000
    N879     N        0.19857    0.62278    0.20637    1.000
    Si880    Si       0.14439    0.63940    0.15733    1.000
    N881     N        0.15262    0.59472    0.16493    1.000
    N882     N        0.04331    0.61479    0.29426    1.000
    Si883    Si       0.06034    0.63320    0.32828    1.000
    N884     N        0.10436    0.62884    0.33587    1.000
    Si885    Si       0.04769    0.64565    0.26096    1.000
    N886     N        0.05350    0.60681    0.36300    1.000
    N887     N        0.11778    0.63874    0.26361    1.000
    Si888    Si       0.12744    0.61905    0.30021    1.000
    N889     N        0.16825    0.62995    0.31382    1.000
    N890     N        0.21771    0.60849    0.35288    1.000
    Si891    Si       0.21232    0.62467    0.24847    1.000
    N892     N        0.09393    0.63337    0.40788    1.000
    Si893    Si       0.05355    0.62213    0.40260    1.000
    N894     N        0.00062    0.63731    0.47193    1.000
    N895     N        0.09231    0.63102    0.48258    1.000
    Si896    Si       0.02116    0.59946    0.46862    1.000
    Si897    Si       0.10894    0.64790    0.44709    1.000
    N898     N        0.02622    0.65388    0.41018    1.000
    Si899    Si       0.22293    0.63161    0.46535    1.000
    N900     N        0.15610    0.64581    0.39060    1.000
    Si901    Si       0.16804    0.61220    0.41600    1.000
    N902     N        0.21157    0.61760    0.42347    1.000
    Si903    Si       0.12057    0.62502    0.37487    1.000
    Si904    Si       0.23863    0.62202    0.38950    1.000
    Si905    Si       0.15581    0.61154    0.49203    1.000
    N906     N        0.14829    0.62806    0.45209    1.000
    Si907    Si       0.08181    0.63746    0.59038    1.000
    Si908    Si       0.02141    0.60589    0.57168    1.000
    N909     N        0.01822    0.64115    0.54860    1.000
    N910     N        0.99799    0.61431    0.60867    1.000
    N911     N        0.05945    0.59768    0.59061    1.000
    N912     N        0.23014    0.65069    0.50856    1.000
    Si913    Si       0.20145    0.61320    0.58856    1.000
    N914     N        0.15265    0.64388    0.52047    1.000
    N915     N        0.20189    0.65290    0.57206    1.000
    N916     N        0.11646    0.64105    0.61847    1.000
    Si917    Si       0.01987    0.63779    0.68874    1.000
    N918     N        0.06313    0.63101    0.69161    1.000
    N919     N        0.17887    0.62419    0.70121    1.000
    N920     N        0.23915    0.62744    0.66337    1.000
    Si921    Si       0.13637    0.60391    0.63337    1.000
    Si922    Si       0.20056    0.60987    0.66432    1.000
    N923     N        0.17867    0.61595    0.62680    1.000
    Si924    Si       0.19150    0.62103    0.74676    1.000
    N925     N        0.07496    0.63007    0.83396    1.000
    Si926    Si       0.03157    0.61819    0.83049    1.000
    N927     N        0.07806    0.64681    0.76416    1.000
    Si928    Si       0.07656    0.60167    0.76765    1.000
    Si929    Si       0.10516    0.59766    0.83734    1.000
    N930     N        0.03950    0.59847    0.78785    1.000
    N931     N        0.20428    0.62568    0.78890    1.000
    N932     N        0.13369    0.61777    0.86252    1.000
    N933     N        0.20076    0.63280    0.85869    1.000
    Si934    Si       0.16229    0.65120    0.84526    1.000
    N935     N        0.03369    0.64640    0.90612    1.000
    N936     N        0.03595    0.62888    0.97508    1.000
    Si937    Si       0.04825    0.60535    0.90421    1.000
    N938     N        0.09098    0.60115    0.91748    1.000
    N939     N        0.11199    0.64361    0.99159    1.000
    N940     N        0.15388    0.62307    0.93144    1.000
    N941     N        0.19028    0.63648    0.99088    1.000
    Si942    Si       0.12205    0.62756    0.90359    1.000
    Si943    Si       0.18906    0.63513    0.90233    1.000
    Si944    Si       0.15323    0.64149    0.97129    1.000
    N945     N        0.06444    0.67526    0.08772    1.000
    Si946    Si       0.07819    0.69764    0.05291    1.000
    N947     N        0.06106    0.68298    0.01593    1.000
    N948     N        0.00293    0.66324    0.04837    1.000
    N949     N        0.99682    0.68156    0.11143    1.000
    Si950    Si       0.02235    0.65874    0.08618    1.000
    Si951    Si       0.11986    0.68647    0.00070    1.000
    N952     N        0.12105    0.69067    0.04523    1.000
    Si953    Si       0.16016    0.68298    0.06248    1.000
    N954     N        0.18996    0.70296    0.03633    1.000
    Si955    Si       0.23113    0.68729    0.03777    1.000
    N956     N        0.16426    0.70653    0.10151    1.000
    N957     N        0.23099    0.69705    0.11410    1.000
    N958     N        0.01186    0.66367    0.18114    1.000
    Si959    Si       0.00447    0.70350    0.19574    1.000
    N960     N        0.09706    0.70059    0.22872    1.000
    Si961    Si       0.13072    0.69804    0.20180    1.000
    Si962    Si       0.19350    0.69584    0.13349    1.000
    N963     N        0.12151    0.65961    0.12687    1.000
    Si964    Si       0.12714    0.70281    0.12488    1.000
    N965     N        0.18521    0.65616    0.14865    1.000
    N966     N        0.13174    0.65451    0.19556    1.000
    N967     N        0.07020    0.67499    0.28586    1.000
    N968     N        0.04072    0.67134    0.34174    1.000
    Si969    Si       0.05221    0.70232    0.31406    1.000
    Si970    Si       0.10741    0.68148    0.26576    1.000
    N971     N        0.00715    0.66109    0.26056    1.000
    Si972    Si       0.00123    0.70469    0.25926    1.000
    N973     N        0.14354    0.69699    0.28095    1.000
    N974     N        0.19106    0.69838    0.32851    1.000
    Si975    Si       0.17480    0.67158    0.29704    1.000
    N976     N        0.20008    0.66487    0.26272    1.000
    Si977    Si       0.23236    0.69091    0.25086    1.000
    Si978    Si       0.02426    0.68350    0.37941    1.000
    Si979    Si       0.99070    0.65594    0.43434    1.000
    N980     N        0.12252    0.68732    0.43823    1.000
    N981     N        0.18892    0.70529    0.39957    1.000
    N982     N        0.13145    0.70681    0.37246    1.000
    N983     N        0.22174    0.67418    0.45270    1.000
    Si984    Si       0.22892    0.69119    0.41206    1.000
    Si985    Si       0.22616    0.69320    0.49160    1.000
    Si986    Si       0.15114    0.68619    0.40639    1.000
    N987     N        0.05148    0.66972    0.60261    1.000
    Si988    Si       0.04609    0.67780    0.55525    1.000
    N989     N        0.04144    0.68443    0.50895    1.000
    Si990    Si       0.00696    0.65756    0.51044    1.000
    Si991    Si       0.01263    0.65411    0.61751    1.000
    N992     N        0.08802    0.65749    0.55278    1.000
    Si993    Si       0.11026    0.65513    0.51684    1.000
    Si994    Si       0.06230    0.71105    0.61744    1.000
    N995     N        0.11122    0.69523    0.50102    1.000
    Si996    Si       0.22892    0.68762    0.58207    1.000
    N997     N        0.19789    0.70121    0.52089    1.000
    N998     N        0.15146    0.70700    0.61664    1.000
    Si999    Si       0.19164    0.65763    0.53133    1.000
    Si1000   Si       0.99633    0.70923    0.65978    1.000
    N1001    N        0.01767    0.66079    0.72584    1.000
    N1002    N        0.01125    0.66729    0.65864    1.000
    N1003    N        0.07290    0.70038    0.71450    1.000
    N1004    N        0.09227    0.70348    0.64855    1.000
    Si1005   Si       0.10828    0.70672    0.69117    1.000
    Si1006   Si       0.06157    0.66145    0.72736    1.000
    Si1007   Si       0.99251    0.69374    0.73395    1.000
    Si1008   Si       0.23952    0.67000    0.66334    1.000
    Si1009   Si       0.22199    0.70853    0.73179    1.000
    Si1010   Si       0.12749    0.67891    0.63751    1.000
    Si1011   Si       0.17286    0.66699    0.70813    1.000
    N1012    N        0.14225    0.67924    0.68017    1.000
    N1013    N        0.22386    0.68839    0.62690    1.000
    N1014    N        0.21291    0.68126    0.69818    1.000
    N1015    N        0.07103    0.69825    0.81389    1.000
    Si1016   Si       0.03604    0.69727    0.83992    1.000
    Si1017   Si       0.08984    0.65876    0.80590    1.000
    N1018    N        0.01300    0.65925    0.84064    1.000
    N1019    N        0.18991    0.68600    0.81766    1.000
    Si1020   Si       0.15786    0.68624    0.78774    1.000
    Si1021   Si       0.22365    0.66292    0.80005    1.000
    N1022    N        0.13309    0.65891    0.81305    1.000
    N1023    N        0.16887    0.66752    0.75072    1.000
    N1024    N        0.23762    0.68799    0.76900    1.000
    Si1025   Si       0.06232    0.71216    0.98409    1.000
    N1026    N        0.04607    0.70949    0.88218    1.000
    Si1027   Si       0.06423    0.67904    0.90755    1.000
    N1028    N        0.10360    0.66716    0.90028    1.000
    N1029    N        0.05522    0.69002    0.94755    1.000
    N1030    N        0.99673    0.67929    0.98848    1.000
    Si1031   Si       0.99782    0.66419    0.88698    1.000
    Si1032   Si       0.01912    0.66164    0.95135    1.000
    N1033    N        0.15542    0.68642    0.97375    1.000
    N1034    N        0.16555    0.67080    0.88578    1.000
    Si1035   Si       0.20553    0.67526    0.96882    1.000
    Si1036   Si       0.13231    0.69737    0.88850    1.000
    N1037    N        0.21708    0.65608    0.93125    1.000
    N1038    N        0.07127    0.73883    0.05147    1.000
    Si1039   Si       0.06773    0.75658    0.09415    1.000
    N1040    N        0.03391    0.73898    0.11145    1.000
    Si1041   Si       0.10346    0.75534    0.02185    1.000
    N1042    N        0.10829    0.73913    0.10880    1.000
    Si1043   Si       0.99530    0.72340    0.10039    1.000
    Si1044   Si       0.03134    0.75985    0.03692    1.000
    N1045    N        0.99342    0.73064    0.05498    1.000
    N1046    N        0.03639    0.74348    0.99530    1.000
    N1047    N        0.14274    0.75298    0.04199    1.000
    Si1048   Si       0.14771    0.74521    0.08374    1.000
    Si1049   Si       0.17912    0.74276    0.02013    1.000
    N1050    N        0.21170    0.76812    0.03465    1.000
    Si1051   Si       0.06779    0.73204    0.21877    1.000
    N1052    N        0.07089    0.74662    0.17747    1.000
    Si1053   Si       0.03718    0.75688    0.15102    1.000
    Si1054   Si       0.10459    0.75722    0.15053    1.000
    N1055    N        0.99823    0.73272    0.16541    1.000
    N1056    N        0.02881    0.71725    0.22806    1.000
    N1057    N        0.22826    0.72708    0.22836    1.000
    N1058    N        0.13227    0.71945    0.16430    1.000
    N1059    N        0.15458    0.72968    0.22129    1.000
    Si1060   Si       0.20865    0.76235    0.24312    1.000
    Si1061   Si       0.16652    0.74810    0.18260    1.000
    N1062    N        0.19919    0.72628    0.16592    1.000
    N1063    N        0.02562    0.72696    0.29127    1.000
    N1064    N        0.08184    0.73060    0.33069    1.000
    Si1065   Si       0.03878    0.76571    0.27948    1.000
    Si1066   Si       0.09820    0.76762    0.31472    1.000
    N1067    N        0.06439    0.76808    0.24411    1.000
    N1068    N        0.11965    0.76551    0.27740    1.000
    N1069    N        0.18683    0.74777    0.27544    1.000
    Si1070   Si       0.14896    0.73693    0.26527    1.000
    N1071    N        0.17633    0.75669    0.34436    1.000
    Si1072   Si       0.20294    0.73893    0.31425    1.000
    Si1073   Si       0.17162    0.71882    0.36077    1.000
    Si1074   Si       0.09140    0.72491    0.37310    1.000
    N1075    N        0.07019    0.73139    0.45831    1.000
    N1076    N        0.09267    0.76093    0.39768    1.000
    Si1077   Si       0.05954    0.74647    0.41940    1.000
    Si1078   Si       0.10941    0.71875    0.46479    1.000
    N1079    N        0.05315    0.71331    0.39258    1.000
    N1080    N        0.01149    0.74413    0.49587    1.000
    Si1081   Si       0.23228    0.76626    0.43085    1.000
    N1082    N        0.13221    0.75061    0.48327    1.000
    N1083    N        0.07466    0.74387    0.52738    1.000
    Si1084   Si       0.05570    0.75484    0.56456    1.000
    N1085    N        0.08388    0.74644    0.59731    1.000
    N1086    N        0.02937    0.71889    0.56928    1.000
    Si1087   Si       0.05026    0.72514    0.49680    1.000
    Si1088   Si       0.11644    0.73391    0.52139    1.000
    Si1089   Si       0.18462    0.73488    0.54338    1.000
    Si1090   Si       0.12959    0.73871    0.59536    1.000
    N1091    N        0.14356    0.73770    0.55510    1.000
    N1092    N        0.20557    0.72647    0.58149    1.000
    N1093    N        0.19336    0.76754    0.51498    1.000
    Si1094   Si       0.05096    0.73653    0.72904    1.000
    N1095    N        0.03066    0.72968    0.64030    1.000
    N1096    N        0.03700    0.76448    0.70053    1.000
    Si1097   Si       0.03625    0.76863    0.65727    1.000
    N1098    N        0.12966    0.73925    0.70889    1.000
    Si1099   Si       0.19229    0.72086    0.62379    1.000
    Si1100   Si       0.17018    0.75347    0.70028    1.000
    N1101    N        0.19081    0.73829    0.73540    1.000
    N1102    N        0.19041    0.74233    0.66200    1.000
    Si1103   Si       0.00359    0.74714    0.78570    1.000
    Si1104   Si       0.10516    0.72902    0.81702    1.000
    N1105    N        0.00939    0.72836    0.82367    1.000
    N1106    N        0.01754    0.72254    0.75384    1.000
    N1107    N        0.08110    0.75513    0.75604    1.000
    N1108    N        0.09313    0.77047    0.81855    1.000
    N1109    N        0.19175    0.75436    0.80759    1.000
    Si1110   Si       0.20594    0.72411    0.83407    1.000
    N1111    N        0.13028    0.71956    0.78294    1.000
    Si1112   Si       0.12398    0.75102    0.75016    1.000
    N1113    N        0.12628    0.71834    0.85264    1.000
    N1114    N        0.99555    0.72869    0.93869    1.000
    Si1115   Si       0.01210    0.73104    0.89843    1.000
    Si1116   Si       0.99881    0.75236    0.97655    1.000
    N1117    N        0.10335    0.72576    0.98894    1.000
    N1118    N        0.14099    0.72893    0.91688    1.000
    Si1119   Si       0.16084    0.72416    0.95467    1.000
    N1120    N        0.20484    0.71632    0.94571    1.000
    Si1121   Si       0.15856    0.75942    0.89201    1.000
    Si1122   Si       0.22258    0.72926    0.90912    1.000
    N1123    N        0.16713    0.75833    0.98099    1.000
    N1124    N        0.19408    0.73789    0.87470    1.000
    N1125    N        0.04228    0.79272    0.06678    1.000
    N1126    N        0.08914    0.79422    0.01422    1.000
    Si1127   Si       0.07344    0.81814    0.04853    1.000
    Si1128   Si       0.00923    0.81903    0.07950    1.000
    N1129    N        0.99812    0.78877    0.02130    1.000
    N1130    N        0.09708    0.82658    0.08346    1.000
    Si1131   Si       0.06876    0.82531    0.11784    1.000
    Si1132   Si       0.19140    0.79623    0.06191    1.000
    N1133    N        0.22543    0.81738    0.07651    1.000
    N1134    N        0.16243    0.82828    0.05121    1.000
    N1135    N        0.17240    0.77796    0.09586    1.000
    N1136    N        0.07104    0.78526    0.13010    1.000
    N1137    N        0.01116    0.79179    0.16249    1.000
    N1138    N        0.11180    0.81335    0.21600    1.000
    Si1139   Si       0.22491    0.80615    0.18646    1.000
    N1140    N        0.19170    0.78553    0.20860    1.000
    Si1141   Si       0.15625    0.81182    0.21181    1.000
    N1142    N        0.21251    0.80612    0.14459    1.000
    Si1143   Si       0.17031    0.80239    0.13168    1.000
    N1144    N        0.14381    0.78138    0.15840    1.000
    N1145    N        0.06214    0.79145    0.30574    1.000
    N1146    N        0.00042    0.78638    0.27499    1.000
    Si1147   Si       0.09770    0.79521    0.25354    1.000
    N1148    N        0.10389    0.83203    0.27754    1.000
    Si1149   Si       0.00259    0.82946    0.28051    1.000
    N1150    N        0.11729    0.79217    0.34445    1.000
    Si1151   Si       0.15904    0.79588    0.35508    1.000
    N1152    N        0.23455    0.79287    0.26575    1.000
    N1153    N        0.18195    0.82758    0.33897    1.000
    Si1154   Si       0.21577    0.83044    0.25318    1.000
    N1155    N        0.17001    0.82859    0.25081    1.000
    Si1156   Si       0.04812    0.80951    0.44729    1.000
    N1157    N        0.09034    0.81221    0.44016    1.000
    Si1158   Si       0.10833    0.82271    0.48077    1.000
    Si1159   Si       0.10850    0.80104    0.39310    1.000
    N1160    N        0.04080    0.80589    0.49043    1.000
    N1161    N        0.02980    0.77573    0.42335    1.000
    Si1162   Si       0.00123    0.78615    0.49503    1.000
    N1163    N        0.15116    0.81799    0.47799    1.000
    N1164    N        0.15317    0.80299    0.39713    1.000
    N1165    N        0.22783    0.79731    0.40114    1.000
    Si1166   Si       0.18898    0.81008    0.41828    1.000
    Si1167   Si       0.16552    0.77711    0.48180    1.000
    N1168    N        0.19383    0.77575    0.44831    1.000
    N1169    N        0.04276    0.79477    0.55979    1.000
    Si1170   Si       0.00248    0.80433    0.57204    1.000
    Si1171   Si       0.05909    0.82139    0.52903    1.000
    N1172    N        0.10086    0.81602    0.52373    1.000
    Si1173   Si       0.09244    0.79126    0.60925    1.000
    N1174    N        0.09947    0.83157    0.59187    1.000
    Si1175   Si       0.15883    0.81688    0.60768    1.000
    N1176    N        0.13652    0.78004    0.60976    1.000
    Si1177   Si       0.22790    0.79196    0.49780    1.000
    N1178    N        0.00046    0.79573    0.65960    1.000
    Si1179   Si       0.01073    0.80044    0.70216    1.000
    Si1180   Si       0.07349    0.82558    0.67630    1.000
    N1181    N        0.06950    0.79482    0.64610    1.000
    N1182    N        0.10516    0.82779    0.70901    1.000
    N1183    N        0.16828    0.79575    0.68497    1.000
    Si1184   Si       0.14699    0.81745    0.71923    1.000
    N1185    N        0.19856    0.80481    0.62057    1.000
    Si1186   Si       0.20409    0.78451    0.65932    1.000
    N1187    N        0.02360    0.78416    0.78672    1.000
    Si1188   Si       0.06741    0.78406    0.78531    1.000
    Si1189   Si       0.00841    0.81805    0.81046    1.000
    N1190    N        0.07530    0.82623    0.77544    1.000
    Si1191   Si       0.10654    0.79409    0.85347    1.000
    N1192    N        0.03593    0.81889    0.84446    1.000
    N1193    N        0.21651    0.80517    0.86077    1.000
    N1194    N        0.18493    0.81476    0.80037    1.000
    Si1195   Si       0.18330    0.78924    0.83475    1.000
    N1196    N        0.14908    0.78531    0.85950    1.000
    N1197    N        0.22413    0.79227    0.75250    1.000
    Si1198   Si       0.22272    0.82631    0.77882    1.000
    N1199    N        0.14966    0.78648    0.74893    1.000
    Si1200   Si       0.18787    0.77398    0.76843    1.000
    Si1201   Si       0.04304    0.80850    0.88726    1.000
    N1202    N        0.08585    0.80480    0.89376    1.000
    Si1203   Si       0.09784    0.82471    0.98317    1.000
    N1204    N        0.99444    0.79056    0.95997    1.000
    Si1205   Si       0.99029    0.80020    0.91684    1.000
    N1206    N        0.01899    0.77331    0.89433    1.000
    N1207    N        0.18773    0.82743    0.97991    1.000
    Si1208   Si       0.21624    0.79930    0.90464    1.000
    N1209    N        0.17813    0.78654    0.92002    1.000
    Si1210   Si       0.16339    0.79710    0.95937    1.000
    N1211    N        0.12324    0.80652    0.95161    1.000
    N1212    N        0.06480    0.85540    0.02739    1.000
    Si1213   Si       0.02487    0.86957    0.02200    1.000
    N1214    N        0.00298    0.85743    0.05853    1.000
    Si1215   Si       0.10195    0.87818    0.02651    1.000
    N1216    N        0.02605    0.83959    0.11809    1.000
    Si1217   Si       0.00797    0.88009    0.11578    1.000
    Si1218   Si       0.13646    0.84667    0.08046    1.000
    Si1219   Si       0.16691    0.84813    0.01284    1.000
    N1220    N        0.19147    0.88299    0.02368    1.000
    N1221    N        0.15847    0.84344    0.11648    1.000
    N1222    N        0.12565    0.88611    0.06373    1.000
    N1223    N        0.12439    0.85246    0.00121    1.000
    Si1224   Si       0.03963    0.87104    0.23142    1.000
    N1225    N        0.08211    0.84908    0.15239    1.000
    N1226    N        0.03753    0.83850    0.20010    1.000
    Si1227   Si       0.08268    0.83838    0.19442    1.000
    N1228    N        0.02158    0.88814    0.15794    1.000
    N1229    N        0.07760    0.88293    0.20356    1.000
    Si1230   Si       0.01576    0.83599    0.16183    1.000
    Si1231   Si       0.06528    0.88820    0.16257    1.000
    Si1232   Si       0.17237    0.87103    0.14772    1.000
    N1233    N        0.21431    0.88240    0.15170    1.000
    N1234    N        0.22799    0.84079    0.21227    1.000
    N1235    N        0.12932    0.88871    0.24140    1.000
    N1236    N        0.16410    0.84651    0.18474    1.000
    Si1237   Si       0.22128    0.87958    0.19419    1.000
    Si1238   Si       0.15131    0.88540    0.20319    1.000
    N1239    N        0.06726    0.86863    0.32513    1.000
    N1240    N        0.03903    0.84417    0.26731    1.000
    Si1241   Si       0.99926    0.88076    0.34030    1.000
    Si1242   Si       0.06710    0.83457    0.29914    1.000
    Si1243   Si       0.06607    0.87344    0.36944    1.000
    N1244    N        0.99444    0.84205    0.32313    1.000
    N1245    N        0.15744    0.87724    0.30023    1.000
    Si1246   Si       0.19410    0.86265    0.31773    1.000
    N1247    N        0.22570    0.85795    0.28692    1.000
    Si1248   Si       0.13926    0.85552    0.26724    1.000
    N1249    N        0.21382    0.89214    0.34170    1.000
    N1250    N        0.06489    0.88357    0.42087    1.000
    N1251    N        0.09906    0.86453    0.47507    1.000
    N1252    N        0.01749    0.83967    0.43876    1.000
    Si1253   Si       0.10028    0.85970    0.42950    1.000
    N1254    N        0.09346    0.84250    0.38690    1.000
    N1255    N        0.02142    0.87562    0.37625    1.000
    Si1256   Si       0.02320    0.87697    0.41954    1.000
    N1257    N        0.16791    0.88769    0.48615    1.000
    N1258    N        0.19726    0.84857    0.43618    1.000
    Si1259   Si       0.21446    0.88392    0.41878    1.000
    Si1260   Si       0.18150    0.84854    0.47682    1.000
    N1261    N        0.05101    0.86241    0.53441    1.000
    N1262    N        0.00073    0.84128    0.59405    1.000
    Si1263   Si       0.12088    0.84120    0.55306    1.000
    Si1264   Si       0.19958    0.84345    0.54670    1.000
    N1265    N        0.12107    0.88200    0.54079    1.000
    N1266    N        0.23312    0.88779    0.60464    1.000
    N1267    N        0.23556    0.83298    0.57026    1.000
    N1268    N        0.19781    0.88783    0.54524    1.000
    Si1269   Si       0.22739    0.84275    0.61694    1.000
    N1270    N        0.16220    0.83061    0.56398    1.000
    N1271    N        0.21029    0.83227    0.50567    1.000
    Si1272   Si       0.98927    0.83283    0.63589    1.000
    Si1273   Si       0.10491    0.86199    0.62273    1.000
    Si1274   Si       0.01602    0.87119    0.70228    1.000
    N1275    N        0.07386    0.86110    0.65187    1.000
    N1276    N        0.00224    0.86413    0.66020    1.000
    Si1277   Si       0.07394    0.84455    0.73670    1.000
    N1278    N        0.05681    0.88368    0.74385    1.000
    Si1279   Si       0.03844    0.88549    0.64943    1.000
    N1280    N        0.03930    0.83454    0.70728    1.000
    N1281    N        0.21154    0.85568    0.65884    1.000
    Si1282   Si       0.19475    0.88188    0.73447    1.000
    N1283    N        0.14384    0.84685    0.63678    1.000
    N1284    N        0.17002    0.85330    0.71455    1.000
    Si1285   Si       0.16959    0.86224    0.67013    1.000
    N1286    N        0.00776    0.85146    0.78104    1.000
    Si1287   Si       0.09444    0.85299    0.80378    1.000
    Si1288   Si       0.03645    0.88498    0.78279    1.000
    N1289    N        0.06797    0.88758    0.81163    1.000
    N1290    N        0.11079    0.83787    0.84038    1.000
    N1291    N        0.17504    0.87045    0.83946    1.000
    N1292    N        0.13020    0.86763    0.78221    1.000
    Si1293   Si       0.17001    0.85646    0.79791    1.000
    N1294    N        0.20527    0.86543    0.77351    1.000
    Si1295   Si       0.13372    0.86876    0.85742    1.000
    Si1296   Si       0.03516    0.86040    0.94897    1.000
    N1297    N        0.07588    0.84766    0.95187    1.000
    N1298    N        0.01152    0.85269    0.98583    1.000
    Si1299   Si       0.10571    0.83319    0.92080    1.000
    N1300    N        0.01715    0.83548    0.91442    1.000
    N1301    N        0.23134    0.88213    0.97097    1.000
    Si1302   Si       0.23612    0.87581    0.90056    1.000
    N1303    N        0.22819    0.83780    0.92090    1.000
    N1304    N        0.13303    0.86286    0.90111    1.000
    Si1305   Si       0.22520    0.83978    0.96344    1.000
    N1306    N        0.02823    0.91274    0.01573    1.000
    N1307    N        0.01963    0.91875    0.09949    1.000
    Si1308   Si       0.06102    0.93704    0.03153    1.000
    Si1309   Si       0.05553    0.94132    0.11025    1.000
    N1310    N        0.09455    0.91882    0.01195    1.000
    N1311    N        0.07779    0.94136    0.07121    1.000
    Si1312   Si       0.12253    0.92975    0.06783    1.000
    N1313    N        0.20164    0.93556    0.06368    1.000
    Si1314   Si       0.22085    0.89959    0.05125    1.000
    N1315    N        0.13710    0.94242    0.10676    1.000
    N1316    N        0.08102    0.91848    0.13846    1.000
    Si1317   Si       0.02211    0.93230    0.23868    1.000
    Si1318   Si       0.09389    0.91313    0.23504    1.000
    N1319    N        0.99969    0.89659    0.22368    1.000
    N1320    N        0.04107    0.95113    0.20517    1.000
    N1321    N        0.19014    0.90346    0.21473    1.000
    Si1322   Si       0.12141    0.92927    0.14453    1.000
    Si1323   Si       0.18889    0.93439    0.24328    1.000
    N1324    N        0.14469    0.89978    0.16357    1.000
    N1325    N        0.01684    0.91103    0.31585    1.000
    N1326    N        0.05544    0.90772    0.25753    1.000
    N1327    N        0.09999    0.92636    0.29949    1.000
    Si1328   Si       0.10970    0.94547    0.35688    1.000
    Si1329   Si       0.05898    0.90449    0.30137    1.000
    N1330    N        0.07975    0.91599    0.36910    1.000
    Si1331   Si       0.18997    0.92323    0.35935    1.000
    Si1332   Si       0.14101    0.91383    0.30643    1.000
    N1333    N        0.14665    0.92631    0.34794    1.000
    N1334    N        0.22815    0.93342    0.26452    1.000
    N1335    N        0.16407    0.94277    0.27971    1.000
    Si1336   Si       0.06426    0.94317    0.47805    1.000
    Si1337   Si       0.08780    0.92094    0.41302    1.000
    N1338    N        0.10587    0.93215    0.48618    1.000
    N1339    N        0.99760    0.90289    0.44233    1.000
    N1340    N        0.03136    0.91675    0.49514    1.000
    Si1341   Si       0.99038    0.90355    0.48640    1.000
    N1342    N        0.18884    0.91631    0.40127    1.000
    N1343    N        0.12604    0.89478    0.42318    1.000
    Si1344   Si       0.15206    0.92915    0.41952    1.000
    Si1345   Si       0.06207    0.92606    0.60169    1.000
    N1346    N        0.05326    0.93589    0.56213    1.000
    N1347    N        0.09674    0.90099    0.60433    1.000
    Si1348   Si       0.03709    0.90410    0.53561    1.000
    N1349    N        0.99377    0.90380    0.54793    1.000
    N1350    N        0.02437    0.91172    0.61777    1.000
    Si1351   Si       0.12606    0.91461    0.57281    1.000
    N1352    N        0.16324    0.91415    0.60029    1.000
    Si1353   Si       0.20196    0.91078    0.58174    1.000
    Si1354   Si       0.19105    0.91420    0.51272    1.000
    N1355    N        0.22828    0.93847    0.50682    1.000
    Si1356   Si       0.12303    0.89129    0.49743    1.000
    N1357    N        0.16380    0.94703    0.52097    1.000
    Si1358   Si       0.06773    0.91623    0.71870    1.000
    N1359    N        0.03791    0.90830    0.68932    1.000
    Si1360   Si       0.01106    0.94497    0.68687    1.000
    N1361    N        0.11058    0.91476    0.71685    1.000
    N1362    N        0.99074    0.94421    0.72504    1.000
    N1363    N        0.16461    0.90613    0.67116    1.000
    Si1364   Si       0.14643    0.93513    0.69903    1.000
    Si1365   Si       0.16243    0.93446    0.63829    1.000
    N1366    N        0.22813    0.89492    0.71214    1.000
    N1367    N        0.01520    0.92201    0.78602    1.000
    Si1368   Si       0.09058    0.92394    0.81916    1.000
    N1369    N        0.10900    0.93589    0.78014    1.000
    N1370    N        0.12257    0.90871    0.84670    1.000
    N1371    N        0.20897    0.93260    0.82564    1.000
    Si1372   Si       0.12739    0.90375    0.75714    1.000
    Si1373   Si       0.20680    0.89820    0.85328    1.000
    Si1374   Si       0.12322    0.94785    0.86846    1.000
    N1375    N        0.23108    0.94363    0.75901    1.000
    N1376    N        0.16775    0.91519    0.74559    1.000
    N1377    N        0.03007    0.90522    0.94785    1.000
    Si1378   Si       0.04268    0.94262    0.93096    1.000
    Si1379   Si       0.00805    0.92679    0.98007    1.000
    N1380    N        0.02914    0.94795    0.89167    1.000
    N1381    N        0.19976    0.90073    0.89645    1.000
    N1382    N        0.13178    0.93053    0.90905    1.000
    N1383    N        0.16889    0.89924    0.95590    1.000
    Si1384   Si       0.15696    0.89665    0.91536    1.000
    Si1385   Si       0.19784    0.90573    0.98560    1.000
    N1386    N        0.19868    0.94989    0.99551    1.000
    N1387    N        0.01835    0.97509    0.05630    1.000
    N1388    N        0.07324    0.97752    0.01477    1.000
    Si1389   Si       0.05368    0.00003    0.04814    1.000
    Si1390   Si       0.11320    0.95823    0.00333    1.000
    Si1391   Si       0.99197    0.00792    0.03689    1.000
    Si1392   Si       0.99386    0.95137    0.08395    1.000
    N1393    N        0.19264    0.00131    0.04863    1.000
    Si1394   Si       0.18140    0.96108    0.03610    1.000
    N1395    N        0.14072    0.95421    0.03739    1.000
    Si1396   Si       0.07168    0.97573    0.22371    1.000
    N1397    N        0.04836    0.98046    0.12910    1.000
    Si1398   Si       0.03682    0.98214    0.17034    1.000
    N1399    N        0.99685    0.99474    0.17743    1.000
    N1400    N        0.06842    0.00600    0.19330    1.000
    N1401    N        0.10899    0.95285    0.22435    1.000
    Si1402   Si       0.23333    0.97637    0.14074    1.000
    N1403    N        0.19660    0.98830    0.12227    1.000
    Si1404   Si       0.13850    0.97815    0.20284    1.000
    Si1405   Si       0.21491    0.99372    0.21293    1.000
    N1406    N        0.17616    0.97428    0.22565    1.000
    N1407    N        0.13604    0.96779    0.16241    1.000
    Si1408   Si       0.15336    0.97934    0.12507    1.000
    N1409    N        0.06120    0.97642    0.26531    1.000
    N1410    N        0.09681    0.97917    0.33169    1.000
    Si1411   Si       0.09631    0.97038    0.28978    1.000
    N1412    N        0.99607    0.95461    0.26444    1.000
    N1413    N        0.01778    0.01218    0.30904    1.000
    Si1414   Si       0.21623    0.95826    0.30019    1.000
    Si1415   Si       0.16304    0.98583    0.26549    1.000
    N1416    N        0.20501    0.96085    0.34385    1.000
    N1417    N        0.12369    0.00074    0.27318    1.000
    N1418    N        0.19586    0.99716    0.28879    1.000
    Si1419   Si       0.19591    0.99907    0.36594    1.000
    N1420    N        0.05801    0.98647    0.48620    1.000
    Si1421   Si       0.03300    0.97585    0.41674    1.000
    N1422    N        0.00215    0.97305    0.45027    1.000
    N1423    N        0.99924    0.95785    0.39104    1.000
    Si1424   Si       0.01419    0.99131    0.48782    1.000
    N1425    N        0.06011    0.94667    0.43445    1.000
    N1426    N        0.16075    0.95673    0.45288    1.000
    Si1427   Si       0.18951    0.98930    0.44398    1.000
    Si1428   Si       0.13023    0.99753    0.41121    1.000
    N1429    N        0.23046    0.97845    0.44849    1.000
    N1430    N        0.11889    0.95476    0.40037    1.000
    Si1431   Si       0.13662    0.95928    0.48887    1.000
    N1432    N        0.17383    0.99578    0.40299    1.000
    N1433    N        0.23956    0.00119    0.38024    1.000
    Si1434   Si       0.09278    0.98292    0.58925    1.000
    N1435    N        0.00814    0.97426    0.52727    1.000
    Si1436   Si       0.02988    0.97353    0.56410    1.000
    N1437    N        0.06157    0.00306    0.56736    1.000
    N1438    N        0.99255    0.96864    0.58870    1.000
    N1439    N        0.06554    0.96454    0.61995    1.000
    N1440    N        0.12077    0.95689    0.56824    1.000
    N1441    N        0.13321    0.99757    0.50974    1.000
    Si1442   Si       0.15027    0.98085    0.54616    1.000
    Si1443   Si       0.22840    0.96525    0.61193    1.000
    N1444    N        0.11937    0.00768    0.61351    1.000
    N1445    N        0.21532    0.94973    0.57328    1.000
    N1446    N        0.05712    0.95878    0.73589    1.000
    Si1447   Si       0.05207    0.99858    0.64687    1.000
    N1448    N        0.03152    0.98039    0.67927    1.000
    Si1449   Si       0.06322    0.99382    0.70931    1.000
    N1450    N        0.11054    0.99176    0.72797    1.000
    N1451    N        0.17990    0.96224    0.71048    1.000
    N1452    N        0.19770    0.95802    0.64062    1.000
    Si1453   Si       0.20632    0.97622    0.67971    1.000
    N1454    N        0.13084    0.95688    0.66295    1.000
    Si1455   Si       0.11925    0.99805    0.65632    1.000
    N1456    N        0.00608    0.99090    0.77707    1.000
    Si1457   Si       0.06655    0.99389    0.82991    1.000
    Si1458   Si       0.09358    0.97075    0.76276    1.000
    N1459    N        0.07405    0.99976    0.78829    1.000
    N1460    N        0.08733    0.96037    0.84534    1.000
    N1461    N        0.02502    0.99667    0.83754    1.000
    Si1462   Si       0.01690    0.95207    0.75751    1.000
    Si1463   Si       0.98691    0.99131    0.81562    1.000
    N1464    N        0.18267    0.98152    0.78381    1.000
    Si1465   Si       0.19036    0.97245    0.82644    1.000
    N1466    N        0.15981    0.96821    0.85766    1.000
    Si1467   Si       0.18729    0.95266    0.75192    1.000
    N1468    N        0.07722    0.96279    0.94510    1.000
    Si1469   Si       0.05725    0.98867    0.97552    1.000
    N1470    N        0.01907    0.96861    0.96629    1.000
    N1471    N        0.18423    0.99003    0.92369    1.000
    N1472    N        0.13632    0.97003    0.97058    1.000
    N1473    N        0.11808    0.99641    0.90277    1.000
    Si1474   Si       0.11700    0.96408    0.93307    1.000
    Si1475   Si       0.17877    0.97703    0.96491    1.000
    Si1476   Si       0.15906    0.99907    0.88859    1.000
    N1477    N        0.27426    0.03412    0.06597    1.000
    Si1478   Si       0.29051    0.01903    0.10441    1.000
    Si1479   Si       0.28362    0.01798    0.02519    1.000
    Si1480   Si       0.35094    0.06148    0.09772    1.000
    Si1481   Si       0.23963    0.06296    0.06344    1.000
    N1482    N        0.36182    0.02987    0.06771    1.000
    N1483    N        0.29145    0.04570    0.99427    1.000
    N1484    N        0.41864    0.03055    0.01571    1.000
    Si1485   Si       0.40543    0.03453    0.05614    1.000
    Si1486   Si       0.42544    0.06280    0.11572    1.000
    N1487    N        0.32019    0.04484    0.12468    1.000
    N1488    N        0.27524    0.03438    0.19541    1.000
    N1489    N        0.34317    0.04907    0.19166    1.000
    Si1490   Si       0.35212    0.03377    0.15107    1.000
    Si1491   Si       0.35795    0.02528    0.22619    1.000
    Si1492   Si       0.24208    0.03596    0.16529    1.000
    Si1493   Si       0.30444    0.06422    0.20394    1.000
    N1494    N        0.38367    0.05766    0.13226    1.000
    Si1495   Si       0.48389    0.03885    0.15496    1.000
    Si1496   Si       0.42542    0.04366    0.21645    1.000
    N1497    N        0.45877    0.03575    0.18961    1.000
    N1498    N        0.45536    0.03420    0.12294    1.000
    Si1499   Si       0.33042    0.04366    0.28366    1.000
    N1500    N        0.29353    0.02431    0.29540    1.000
    Si1501   Si       0.25034    0.01629    0.28550    1.000
    Si1502   Si       0.34718    0.06757    0.35940    1.000
    N1503    N        0.36911    0.02805    0.26829    1.000
    N1504    N        0.43632    0.04330    0.25731    1.000
    Si1505   Si       0.40672    0.02930    0.28819    1.000
    N1506    N        0.47980    0.01109    0.33606    1.000
    Si1507   Si       0.42265    0.06117    0.35400    1.000
    N1508    N        0.41697    0.06746    0.31154    1.000
    N1509    N        0.28685    0.02564    0.48844    1.000
    N1510    N        0.29309    0.01521    0.42753    1.000
    N1511    N        0.34687    0.02755    0.37750    1.000
    Si1512   Si       0.28043    0.04933    0.45151    1.000
    N1513    N        0.23742    0.04591    0.43682    1.000
    N1514    N        0.41791    0.02428    0.37295    1.000
    Si1515   Si       0.48971    0.04025    0.44235    1.000
    N1516    N        0.37367    0.05966    0.42856    1.000
    Si1517   Si       0.38422    0.02537    0.40214    1.000
    N1518    N        0.46133    0.01207    0.42619    1.000
    Si1519   Si       0.26091    0.04073    0.52153    1.000
    N1520    N        0.36400    0.04001    0.56031    1.000
    N1521    N        0.23862    0.00646    0.53792    1.000
    N1522    N        0.44529    0.02449    0.58617    1.000
    Si1523   Si       0.39544    0.04308    0.52917    1.000
    Si1524   Si       0.46204    0.05956    0.56719    1.000
    N1525    N        0.37808    0.06694    0.49732    1.000
    N1526    N        0.43247    0.06458    0.53558    1.000
    N1527    N        0.28198    0.01619    0.65041    1.000
    Si1528   Si       0.32020    0.02466    0.63111    1.000
    N1529    N        0.35109    0.01729    0.66049    1.000
    Si1530   Si       0.24220    0.02887    0.63922    1.000
    N1531    N        0.24313    0.06057    0.72007    1.000
    Si1532   Si       0.44803    0.02034    0.63044    1.000
    N1533    N        0.41568    0.04209    0.64680    1.000
    N1534    N        0.39753    0.03027    0.71547    1.000
    N1535    N        0.48292    0.04173    0.63963    1.000
    Si1536   Si       0.38430    0.03960    0.67664    1.000
    Si1537   Si       0.42190    0.05544    0.74394    1.000
    N1538    N        0.27984    0.03909    0.83051    1.000
    N1539    N        0.34302    0.04919    0.86549    1.000
    Si1540   Si       0.32246    0.04751    0.82610    1.000
    N1541    N        0.34465    0.02109    0.79903    1.000
    Si1542   Si       0.25036    0.01160    0.81868    1.000
    Si1543   Si       0.26783    0.03261    0.74627    1.000
    Si1544   Si       0.38853    0.02609    0.80154    1.000
    N1545    N        0.46207    0.05069    0.75619    1.000
    N1546    N        0.39824    0.06473    0.78120    1.000
    N1547    N        0.25511    0.01758    0.93882    1.000
    N1548    N        0.32710    0.04308    0.92777    1.000
    Si1549   Si       0.29140    0.03709    0.95199    1.000
    Si1550   Si       0.36331    0.01971    0.93485    1.000
    N1551    N        0.39913    0.04561    0.93828    1.000
    N1552    N        0.36431    0.01211    0.97841    1.000
    N1553    N        0.46180    0.03754    0.91287    1.000
    Si1554   Si       0.43151    0.06649    0.91953    1.000
    Si1555   Si       0.47702    0.01979    0.94868    1.000
    Si1556   Si       0.39242    0.04649    0.98286    1.000
    N1557    N        0.47507    0.04874    0.98260    1.000
    N1558    N        0.31969    0.09543    0.02286    1.000
    N1559    N        0.25631    0.10160    0.06720    1.000
    N1560    N        0.33232    0.09739    0.08731    1.000
    Si1561   Si       0.29109    0.11548    0.09385    1.000
    Si1562   Si       0.33569    0.12225    0.05043    1.000
    N1563    N        0.26295    0.12068    0.99866    1.000
    Si1564   Si       0.45285    0.09860    0.05214    1.000
    N1565    N        0.43272    0.10748    0.01491    1.000
    N1566    N        0.42700    0.06809    0.07239    1.000
    Si1567   Si       0.39321    0.12422    0.00517    1.000
    Si1568   Si       0.25607    0.10781    0.16157    1.000
    N1569    N        0.29047    0.09966    0.18789    1.000
    N1570    N        0.34025    0.12811    0.22470    1.000
    Si1571   Si       0.39743    0.08791    0.16652    1.000
    Si1572   Si       0.40809    0.11154    0.24204    1.000
    N1573    N        0.43316    0.09585    0.14144    1.000
    N1574    N        0.40974    0.08254    0.20720    1.000
    N1575    N        0.26536    0.10195    0.34084    1.000
    Si1576   Si       0.33580    0.10706    0.26028    1.000
    Si1577   Si       0.29121    0.12124    0.36719    1.000
    N1578    N        0.31854    0.06839    0.24786    1.000
    N1579    N        0.34361    0.06993    0.31506    1.000
    Si1580   Si       0.45166    0.07493    0.28460    1.000
    N1581    N        0.46335    0.07561    0.35852    1.000
    Si1582   Si       0.38229    0.09723    0.31410    1.000
    N1583    N        0.37651    0.10184    0.27139    1.000
    N1584    N        0.44228    0.11390    0.26834    1.000
    N1585    N        0.38697    0.08622    0.36190    1.000
    Si1586   Si       0.45827    0.11730    0.37093    1.000
    N1587    N        0.24069    0.11648    0.46474    1.000
    N1588    N        0.30023    0.08464    0.44645    1.000
    Si1589   Si       0.33674    0.08814    0.42327    1.000
    N1590    N        0.32334    0.09394    0.38306    1.000
    Si1591   Si       0.27699    0.12335    0.44333    1.000
    N1592    N        0.35979    0.11711    0.44608    1.000
    Si1593   Si       0.46108    0.11242    0.44406    1.000
    N1594    N        0.42700    0.10124    0.46965    1.000
    N1595    N        0.48609    0.08033    0.43404    1.000
    N1596    N        0.44106    0.12406    0.40747    1.000
    Si1597   Si       0.38723    0.08471    0.46016    1.000
    Si1598   Si       0.29789    0.11202    0.55307    1.000
    Si1599   Si       0.35502    0.07665    0.58208    1.000
    N1600    N        0.34086    0.10802    0.55447    1.000
    N1601    N        0.27588    0.08374    0.53206    1.000
    N1602    N        0.28551    0.11969    0.59514    1.000
    Si1603   Si       0.24446    0.10237    0.50695    1.000
    N1604    N        0.32498    0.06921    0.61609    1.000
    Si1605   Si       0.41900    0.11967    0.57861    1.000
    Si1606   Si       0.43381    0.10242    0.51321    1.000
    N1607    N        0.39157    0.09295    0.60005    1.000
    N1608    N        0.45795    0.09903    0.58910    1.000
    N1609    N        0.47700    0.10538    0.51068    1.000
    Si1610   Si       0.28252    0.08655    0.62452    1.000
    N1611    N        0.29861    0.09823    0.66503    1.000
    Si1612   Si       0.33769    0.09601    0.64980    1.000
    Si1613   Si       0.25905    0.09590    0.74013    1.000
    N1614    N        0.34472    0.11375    0.73986    1.000
    N1615    N        0.24457    0.06897    0.62489    1.000
    N1616    N        0.37401    0.08246    0.66810    1.000
    Si1617   Si       0.38869    0.11907    0.72962    1.000
    Si1618   Si       0.45220    0.11285    0.69319    1.000
    N1619    N        0.42097    0.09265    0.72008    1.000
    N1620    N        0.43674    0.11290    0.65240    1.000
    Si1621   Si       0.40839    0.08372    0.64013    1.000
    N1622    N        0.32507    0.09098    0.81457    1.000
    Si1623   Si       0.31900    0.09798    0.77204    1.000
    Si1624   Si       0.30433    0.11880    0.84332    1.000
    N1625    N        0.29192    0.06815    0.75788    1.000
    Si1626   Si       0.41038    0.10267    0.79854    1.000
    N1627    N        0.45372    0.09287    0.80922    1.000
    Si1628   Si       0.45430    0.10004    0.85255    1.000
    N1629    N        0.38977    0.11701    0.83421    1.000
    Si1630   Si       0.48391    0.07654    0.78320    1.000
    N1631    N        0.29834    0.09829    0.88086    1.000
    Si1632   Si       0.27069    0.10731    0.91208    1.000
    N1633    N        0.27765    0.08170    0.94429    1.000
    Si1634   Si       0.29628    0.09432    0.98508    1.000
    Si1635   Si       0.33229    0.07466    0.89688    1.000
    N1636    N        0.32558    0.12332    0.96122    1.000
    Si1637   Si       0.46372    0.09462    0.98831    1.000
    N1638    N        0.36325    0.10319    0.90906    1.000
    Si1639   Si       0.36664    0.11203    0.95296    1.000
    N1640    N        0.45165    0.09581    0.94458    1.000
    Si1641   Si       0.39182    0.11362    0.87894    1.000
    N1642    N        0.42441    0.08692    0.88216    1.000
    N1643    N        0.38062    0.08733    0.98600    1.000
    N1644    N        0.29958    0.14762    0.06076    1.000
    Si1645   Si       0.26236    0.13550    0.04008    1.000
    N1646    N        0.36770    0.15966    0.10645    1.000
    Si1647   Si       0.48582    0.16151    0.07094    1.000
    N1648    N        0.37210    0.14226    0.03863    1.000
    Si1649   Si       0.37626    0.17581    0.06747    1.000
    N1650    N        0.46214    0.12874    0.08241    1.000
    N1651    N        0.26887    0.13081    0.12811    1.000
    Si1652   Si       0.30334    0.13687    0.20120    1.000
    N1653    N        0.27398    0.15152    0.22853    1.000
    N1654    N        0.32244    0.16858    0.18089    1.000
    Si1655   Si       0.25055    0.17135    0.13134    1.000
    Si1656   Si       0.23925    0.16797    0.20622    1.000
    N1657    N        0.49081    0.13812    0.22840    1.000
    Si1658   Si       0.36464    0.15215    0.19671    1.000
    N1659    N        0.42925    0.16698    0.13275    1.000
    Si1660   Si       0.45245    0.13045    0.12572    1.000
    Si1661   Si       0.38737    0.16031    0.14224    1.000
    N1662    N        0.40256    0.15010    0.22033    1.000
    N1663    N        0.37639    0.12464    0.16419    1.000
    N1664    N        0.30161    0.15919    0.35065    1.000
    Si1665   Si       0.27164    0.14814    0.27125    1.000
    Si1666   Si       0.32979    0.15473    0.31696    1.000
    N1667    N        0.30914    0.13199    0.28589    1.000
    N1668    N        0.36751    0.13786    0.32564    1.000
    Si1669   Si       0.47032    0.14611    0.26552    1.000
    N1670    N        0.43822    0.14623    0.34208    1.000
    Si1671   Si       0.39794    0.16493    0.34191    1.000
    Si1672   Si       0.47843    0.16262    0.33543    1.000
    N1673    N        0.28752    0.16098    0.46214    1.000
    N1674    N        0.26782    0.13071    0.40241    1.000
    N1675    N        0.38909    0.17360    0.38301    1.000
    Si1676   Si       0.42374    0.16404    0.40876    1.000
    N1677    N        0.48226    0.14794    0.46150    1.000
    Si1678   Si       0.36681    0.15661    0.46200    1.000
    N1679    N        0.40782    0.16872    0.45022    1.000
    N1680    N        0.28733    0.14863    0.53364    1.000
    Si1681   Si       0.35204    0.16974    0.61268    1.000
    Si1682   Si       0.28012    0.16105    0.60603    1.000
    N1683    N        0.35204    0.15631    0.50333    1.000
    Si1684   Si       0.24837    0.16219    0.54447    1.000
    Si1685   Si       0.30865    0.16624    0.50003    1.000
    N1686    N        0.24953    0.18151    0.58298    1.000
    Si1687   Si       0.36685    0.14258    0.54356    1.000
    N1688    N        0.37386    0.16874    0.57648    1.000
    N1689    N        0.43348    0.15823    0.59864    1.000
    N1690    N        0.40792    0.12763    0.53787    1.000
    Si1691   Si       0.35484    0.16086    0.67552    1.000
    Si1692   Si       0.25791    0.17253    0.73635    1.000
    N1693    N        0.26949    0.15765    0.64758    1.000
    N1694    N        0.34609    0.13743    0.63954    1.000
    Si1695   Si       0.28697    0.13672    0.68140    1.000
    N1696    N        0.31853    0.16520    0.69710    1.000
    N1697    N        0.26217    0.13143    0.71634    1.000
    Si1698   Si       0.32187    0.15185    0.74118    1.000
    Si1699   Si       0.46319    0.13001    0.62021    1.000
    N1700    N        0.38687    0.15153    0.70196    1.000
    N1701    N        0.45663    0.15447    0.70175    1.000
    Si1702   Si       0.42061    0.17778    0.71064    1.000
    N1703    N        0.33016    0.15314    0.84956    1.000
    Si1704   Si       0.25534    0.13925    0.79349    1.000
    N1705    N        0.29365    0.13365    0.77151    1.000
    N1706    N        0.35087    0.17815    0.76136    1.000
    N1707    N        0.26095    0.13270    0.83494    1.000
    Si1708   Si       0.39069    0.17354    0.77367    1.000
    Si1709   Si       0.37089    0.15700    0.84168    1.000
    N1710    N        0.40402    0.13271    0.76793    1.000
    N1711    N        0.46023    0.14240    0.86421    1.000
    N1712    N        0.27607    0.14892    0.92018    1.000
    Si1713   Si       0.31096    0.16001    0.94320    1.000
    N1714    N        0.33353    0.18123    0.91288    1.000
    N1715    N        0.39408    0.15852    0.87918    1.000
    Si1716   Si       0.41385    0.18012    0.95648    1.000
    Si1717   Si       0.47187    0.13306    0.93947    1.000
    N1718    N        0.48307    0.13529    0.98159    1.000
    Si1719   Si       0.47587    0.17789    0.99177    1.000
    N1720    N        0.44165    0.16245    0.92877    1.000
    N1721    N        0.39058    0.14569    0.96603    1.000
    Si1722   Si       0.43493    0.17030    0.88666    1.000
    N1723    N        0.34473    0.20392    0.06075    1.000
    N1724    N        0.28010    0.21021    0.03823    1.000
    N1725    N        0.27276    0.19571    0.10088    1.000
    Si1726   Si       0.30431    0.19031    0.06818    1.000
    Si1727   Si       0.28625    0.23337    0.11842    1.000
    Si1728   Si       0.42320    0.21583    0.02730    1.000
    Si1729   Si       0.43815    0.19968    0.10645    1.000
    N1730    N        0.48104    0.19380    0.10161    1.000
    N1731    N        0.41724    0.19332    0.06572    1.000
    N1732    N        0.45741    0.24117    0.03324    1.000
    N1733    N        0.25115    0.18984    0.17149    1.000
    Si1734   Si       0.26535    0.23084    0.17204    1.000
    Si1735   Si       0.33778    0.21082    0.17846    1.000
    N1736    N        0.30825    0.22975    0.15446    1.000
    N1737    N        0.33491    0.23311    0.21483    1.000
    N1738    N        0.43677    0.21478    0.20469    1.000
    Si1739   Si       0.41113    0.22036    0.17041    1.000
    Si1740   Si       0.45955    0.22773    0.23812    1.000
    N1741    N        0.41838    0.23053    0.12591    1.000
    Si1742   Si       0.41727    0.18658    0.23294    1.000
    N1743    N        0.37695    0.19321    0.17139    1.000
    N1744    N        0.33302    0.19445    0.29771    1.000
    Si1745   Si       0.29373    0.21840    0.29665    1.000
    N1746    N        0.28740    0.22927    0.33877    1.000
    Si1747   Si       0.27820    0.19384    0.36299    1.000
    N1748    N        0.26527    0.18870    0.28599    1.000
    Si1749   Si       0.37142    0.21555    0.29204    1.000
    Si1750   Si       0.43939    0.20770    0.29486    1.000
    N1751    N        0.40306    0.19938    0.31524    1.000
    N1752    N        0.46899    0.20417    0.32517    1.000
    N1753    N        0.38520    0.21340    0.24972    1.000
    N1754    N        0.45232    0.18653    0.25948    1.000
    N1755    N        0.34271    0.23292    0.38232    1.000
    Si1756   Si       0.34256    0.22029    0.47343    1.000
    N1757    N        0.25549    0.23168    0.46084    1.000
    N1758    N        0.28372    0.20309    0.40560    1.000
    N1759    N        0.34792    0.19076    0.44182    1.000
    Si1760   Si       0.26452    0.19230    0.44201    1.000
    Si1761   Si       0.30942    0.23957    0.41093    1.000
    N1762    N        0.45350    0.21510    0.46905    1.000
    Si1763   Si       0.47808    0.18797    0.44511    1.000
    Si1764   Si       0.48481    0.22264    0.39700    1.000
    N1765    N        0.45726    0.18932    0.40433    1.000
    Si1766   Si       0.36949    0.20602    0.40628    1.000
    N1767    N        0.40151    0.22971    0.42312    1.000
    Si1768   Si       0.41171    0.21058    0.46115    1.000
    N1769    N        0.38167    0.21771    0.49056    1.000
    Si1770   Si       0.26637    0.22219    0.50221    1.000
    N1771    N        0.31234    0.18988    0.60476    1.000
    N1772    N        0.30850    0.21059    0.50082    1.000
    Si1773   Si       0.39807    0.23563    0.52729    1.000
    N1774    N        0.40699    0.22512    0.61174    1.000
    N1775    N        0.42541    0.21028    0.54843    1.000
    Si1776   Si       0.47003    0.20044    0.55459    1.000
    Si1777   Si       0.40985    0.19241    0.58344    1.000
    N1778    N        0.48784    0.23023    0.52823    1.000
    Si1779   Si       0.32135    0.22285    0.63391    1.000
    Si1780   Si       0.30790    0.20746    0.70233    1.000
    N1781    N        0.29450    0.22692    0.66618    1.000
    N1782    N        0.33626    0.23533    0.72265    1.000
    N1783    N        0.35815    0.19830    0.65191    1.000
    N1784    N        0.29250    0.19431    0.74464    1.000
    N1785    N        0.23980    0.19538    0.70391    1.000
    N1786    N        0.42170    0.21012    0.68068    1.000
    Si1787   Si       0.39288    0.22513    0.65322    1.000
    Si1788   Si       0.45575    0.23819    0.68552    1.000
    N1789    N        0.41632    0.19819    0.74976    1.000
    N1790    N        0.32721    0.22898    0.79888    1.000
    Si1791   Si       0.32982    0.21456    0.75925    1.000
    N1792    N        0.28539    0.21511    0.85594    1.000
    N1793    N        0.35537    0.21558    0.86497    1.000
    Si1794   Si       0.29403    0.24225    0.82390    1.000
    Si1795   Si       0.36271    0.22299    0.82355    1.000
    Si1796   Si       0.47991    0.22202    0.85966    1.000
    Si1797   Si       0.42556    0.24133    0.75304    1.000
    Si1798   Si       0.48669    0.23644    0.80083    1.000
    N1799    N        0.38602    0.18729    0.81476    1.000
    N1800    N        0.44403    0.24646    0.79235    1.000
    Si1801   Si       0.31897    0.19132    0.87162    1.000
    N1802    N        0.29908    0.19046    0.97201    1.000
    Si1803   Si       0.28171    0.22710    0.95882    1.000
    Si1804   Si       0.24853    0.21548    0.87881    1.000
    N1805    N        0.25972    0.22699    0.92073    1.000
    Si1806   Si       0.37407    0.19405    0.90012    1.000
    N1807    N        0.44163    0.21292    0.87574    1.000
    N1808    N        0.40111    0.21111    0.92971    1.000
    Si1809   Si       0.42287    0.24122    0.90858    1.000
    N1810    N        0.43477    0.19210    0.99175    1.000
    Si1811   Si       0.30032    0.28357    0.05816    1.000
    N1812    N        0.32836    0.26818    0.02943    1.000
    N1813    N        0.26006    0.28786    0.03853    1.000
    N1814    N        0.30788    0.25111    0.08777    1.000
    Si1815   Si       0.35236    0.24635    0.05886    1.000
    Si1816   Si       0.25718    0.24358    0.03023    1.000
    N1817    N        0.37222    0.27400    0.08989    1.000
    Si1818   Si       0.39325    0.28692    0.01703    1.000
    Si1819   Si       0.45631    0.28326    0.03588    1.000
    N1820    N        0.43649    0.29066    0.07553    1.000
    Si1821   Si       0.41218    0.26928    0.10454    1.000
    N1822    N        0.39109    0.24563    0.03019    1.000
    N1823    N        0.43223    0.30049    0.00454    1.000
    Si1824   Si       0.30227    0.25857    0.22920    1.000
    N1825    N        0.26398    0.25324    0.20780    1.000
    N1826    N        0.25167    0.25022    0.13485    1.000
    Si1827   Si       0.24224    0.29133    0.21073    1.000
    N1828    N        0.31479    0.29824    0.21816    1.000
    N1829    N        0.42200    0.29884    0.13605    1.000
    Si1830   Si       0.37247    0.24840    0.22567    1.000
    N1831    N        0.39067    0.25698    0.18573    1.000
    Si1832   Si       0.40708    0.29673    0.17706    1.000
    Si1833   Si       0.25853    0.27396    0.28145    1.000
    N1834    N        0.26096    0.28857    0.32206    1.000
    Si1835   Si       0.28970    0.27145    0.35176    1.000
    N1836    N        0.32917    0.29090    0.34787    1.000
    N1837    N        0.29409    0.25356    0.27133    1.000
    Si1838   Si       0.35896    0.26079    0.35327    1.000
    N1839    N        0.36839    0.25500    0.30946    1.000
    Si1840   Si       0.44677    0.28554    0.29633    1.000
    Si1841   Si       0.37127    0.29177    0.28880    1.000
    N1842    N        0.47046    0.27394    0.33102    1.000
    N1843    N        0.44345    0.24745    0.27469    1.000
    Si1844   Si       0.47520    0.29486    0.36831    1.000
    N1845    N        0.36932    0.28482    0.24635    1.000
    N1846    N        0.28515    0.26983    0.39413    1.000
    N1847    N        0.33345    0.25673    0.44901    1.000
    Si1848   Si       0.33944    0.29793    0.46189    1.000
    Si1849   Si       0.27786    0.30201    0.42060    1.000
    N1850    N        0.39572    0.27964    0.37169    1.000
    N1851    N        0.41818    0.29160    0.43757    1.000
    Si1852   Si       0.43667    0.29422    0.47827    1.000
    Si1853   Si       0.42062    0.26264    0.40467    1.000
    N1854    N        0.46370    0.26138    0.39566    1.000
    N1855    N        0.47781    0.28189    0.47681    1.000
    N1856    N        0.25646    0.25122    0.52997    1.000
    Si1857   Si       0.30768    0.29762    0.60888    1.000
    Si1858   Si       0.35158    0.29802    0.54481    1.000
    N1859    N        0.33300    0.26131    0.61783    1.000
    N1860    N        0.37081    0.26074    0.54871    1.000
    N1861    N        0.45904    0.27067    0.58827    1.000
    N1862    N        0.39763    0.29699    0.61269    1.000
    N1863    N        0.42582    0.26272    0.50641    1.000
    Si1864   Si       0.42574    0.26564    0.61343    1.000
    Si1865   Si       0.46402    0.24422    0.49739    1.000
    N1866    N        0.27110    0.28305    0.63054    1.000
    Si1867   Si       0.25973    0.25334    0.65815    1.000
    Si1868   Si       0.36129    0.26749    0.71009    1.000
    Si1869   Si       0.36359    0.28834    0.63568    1.000
    N1870    N        0.23771    0.26598    0.69666    1.000
    N1871    N        0.46022    0.24979    0.72663    1.000
    N1872    N        0.39598    0.27040    0.73890    1.000
    N1873    N        0.44598    0.26454    0.65238    1.000
    Si1874   Si       0.48129    0.29026    0.65157    1.000
    N1875    N        0.37430    0.26100    0.66894    1.000
    N1876    N        0.31056    0.28290    0.83487    1.000
    N1877    N        0.26258    0.26387    0.79883    1.000
    Si1878   Si       0.35153    0.29255    0.82531    1.000
    Si1879   Si       0.27509    0.30091    0.81807    1.000
    N1880    N        0.43556    0.28933    0.85333    1.000
    Si1881   Si       0.42154    0.27550    0.81578    1.000
    N1882    N        0.38127    0.26211    0.81733    1.000
    Si1883   Si       0.30450    0.29492    0.93860    1.000
    Si1884   Si       0.33113    0.27738    0.98927    1.000
    N1885    N        0.31460    0.25536    0.95496    1.000
    N1886    N        0.25460    0.24602    0.98494    1.000
    Si1887   Si       0.23899    0.26366    0.91075    1.000
    N1888    N        0.27021    0.29466    0.91340    1.000
    Si1889   Si       0.37715    0.29902    0.93390    1.000
    N1890    N        0.45756    0.25715    0.92858    1.000
    Si1891   Si       0.48259    0.29384    0.93087    1.000
    N1892    N        0.37161    0.28930    0.97793    1.000
    N1893    N        0.39558    0.27426    0.90310    1.000
    Si1894   Si       0.28851    0.33444    0.10586    1.000
    N1895    N        0.31510    0.31871    0.07698    1.000
    N1896    N        0.25316    0.30980    0.10060    1.000
    Si1897   Si       0.26693    0.31495    0.00304    1.000
    Si1898   Si       0.35908    0.31421    0.07985    1.000
    N1899    N        0.27867    0.35629    0.01623    1.000
    N1900    N        0.36511    0.34741    0.11008    1.000
    N1901    N        0.37951    0.31958    0.04210    1.000
    Si1902   Si       0.44626    0.31901    0.10727    1.000
    Si1903   Si       0.38757    0.35872    0.02408    1.000
    Si1904   Si       0.27457    0.34643    0.17396    1.000
    Si1905   Si       0.34916    0.34614    0.15198    1.000
    N1906    N        0.30528    0.34098    0.14509    1.000
    Si1907   Si       0.35320    0.31541    0.22002    1.000
    N1908    N        0.25364    0.30888    0.17106    1.000
    N1909    N        0.35877    0.35671    0.23489    1.000
    N1910    N        0.26858    0.35622    0.21508    1.000
    N1911    N        0.43873    0.31407    0.20279    1.000
    N1912    N        0.36934    0.32022    0.17990    1.000
    Si1913   Si       0.47510    0.33405    0.19254    1.000
    Si1914   Si       0.33375    0.33161    0.33712    1.000
    N1915    N        0.34501    0.32561    0.29391    1.000
    N1916    N        0.25382    0.35261    0.29505    1.000
    N1917    N        0.30204    0.35951    0.34049    1.000
    Si1918   Si       0.24785    0.35338    0.25149    1.000
    N1919    N        0.24489    0.30554    0.25118    1.000
    N1920    N        0.37525    0.34640    0.35057    1.000
    Si1921   Si       0.40648    0.31625    0.34781    1.000
    Si1922   Si       0.47527    0.34946    0.26308    1.000
    N1923    N        0.44528    0.32533    0.36576    1.000
    N1924    N        0.47510    0.30649    0.27081    1.000
    N1925    N        0.40989    0.30589    0.30498    1.000
    N1926    N        0.36442    0.33183    0.44135    1.000
    Si1927   Si       0.32705    0.35606    0.44130    1.000
    N1928    N        0.26333    0.33195    0.39299    1.000
    N1929    N        0.30457    0.31873    0.44995    1.000
    N1930    N        0.42087    0.33544    0.48224    1.000
    Si1931   Si       0.40734    0.33381    0.43746    1.000
    N1932    N        0.27621    0.34351    0.60369    1.000
    Si1933   Si       0.27817    0.33111    0.56023    1.000
    Si1934   Si       0.24270    0.31294    0.61150    1.000
    N1935    N        0.35178    0.30956    0.50176    1.000
    N1936    N        0.24126    0.30768    0.56818    1.000
    N1937    N        0.27277    0.36081    0.53011    1.000
    N1938    N        0.31330    0.30618    0.56616    1.000
    Si1939   Si       0.23978    0.36366    0.50116    1.000
    Si1940   Si       0.48407    0.34608    0.60230    1.000
    Si1941   Si       0.38482    0.33920    0.50949    1.000
    N1942    N        0.38235    0.32945    0.55228    1.000
    N1943    N        0.44467    0.34627    0.58516    1.000
    Si1944   Si       0.40354    0.33352    0.58965    1.000
    Si1945   Si       0.34968    0.34941    0.71544    1.000
    N1946    N        0.33554    0.32092    0.63503    1.000
    N1947    N        0.34543    0.30718    0.71286    1.000
    N1948    N        0.32289    0.36314    0.74792    1.000
    N1949    N        0.48250    0.33275    0.64492    1.000
    N1950    N        0.39063    0.34633    0.73420    1.000
    N1951    N        0.28425    0.33714    0.79614    1.000
    Si1952   Si       0.32459    0.34483    0.78712    1.000
    N1953    N        0.35333    0.31576    0.78581    1.000
    N1954    N        0.24909    0.31184    0.84866    1.000
    N1955    N        0.37113    0.31937    0.85418    1.000
    N1956    N        0.47614    0.33796    0.82620    1.000
    Si1957   Si       0.45641    0.32954    0.78619    1.000
    Si1958   Si       0.38854    0.30965    0.75904    1.000
    N1959    N        0.48160    0.31102    0.75393    1.000
    N1960    N        0.41843    0.31089    0.79108    1.000
    Si1961   Si       0.47789    0.30054    0.85229    1.000
    Si1962   Si       0.37937    0.36156    0.85758    1.000
    N1963    N        0.30366    0.31161    0.98059    1.000
    N1964    N        0.33938    0.31234    0.92162    1.000
    Si1965   Si       0.26413    0.32855    0.88605    1.000
    Si1966   Si       0.33097    0.35257    0.91031    1.000
    N1967    N        0.29845    0.35292    0.88153    1.000
    Si1968   Si       0.31269    0.35414    0.98614    1.000
    Si1969   Si       0.40670    0.30796    0.87745    1.000
    N1970    N        0.42132    0.35075    0.87664    1.000
    N1971    N        0.40887    0.32916    0.93639    1.000
    N1972    N        0.47208    0.32958    0.95512    1.000
    Si1973   Si       0.43205    0.33091    0.97350    1.000
    N1974    N        0.27458    0.37463    0.09167    1.000
    Si1975   Si       0.28491    0.38245    0.05147    1.000
    Si1976   Si       0.33984    0.40947    0.01821    1.000
    N1977    N        0.25534    0.41155    0.03398    1.000
    N1978    N        0.34718    0.36832    0.00848    1.000
    N1979    N        0.31754    0.41322    0.05308    1.000
    Si1980   Si       0.39232    0.37848    0.09693    1.000
    N1981    N        0.39581    0.38848    0.05415    1.000
    N1982    N        0.37849    0.41562    0.11473    1.000
    N1983    N        0.43177    0.36122    0.10670    1.000
    Si1984   Si       0.26725    0.40265    0.12336    1.000
    Si1985   Si       0.34722    0.41835    0.14229    1.000
    N1986    N        0.25778    0.38599    0.16170    1.000
    N1987    N        0.35109    0.38480    0.17077    1.000
    Si1988   Si       0.25383    0.40022    0.20587    1.000
    Si1989   Si       0.46046    0.38311    0.12861    1.000
    N1990    N        0.41008    0.39528    0.20789    1.000
    N1991    N        0.46267    0.36786    0.16922    1.000
    Si1992   Si       0.43327    0.41469    0.24097    1.000
    Si1993   Si       0.44479    0.40453    0.18415    1.000
    Si1994   Si       0.36789    0.39066    0.20962    1.000
    Si1995   Si       0.28330    0.38131    0.30804    1.000
    N1996    N        0.31306    0.38827    0.27756    1.000
    N1997    N        0.25566    0.40472    0.25122    1.000
    Si1998   Si       0.34847    0.36537    0.27549    1.000
    N1999    N        0.26544    0.41803    0.31911    1.000
    Si2000   Si       0.30333    0.41651    0.24661    1.000
    N2001    N        0.37737    0.39208    0.29412    1.000
    N2002    N        0.43169    0.38191    0.33814    1.000
    Si2003   Si       0.45830    0.39176    0.30635    1.000
    Si2004   Si       0.38861    0.38719    0.33677    1.000
    N2005    N        0.44807    0.38204    0.26479    1.000
    N2006    N        0.36915    0.41773    0.36201    1.000
    Si2007   Si       0.28790    0.41081    0.47053    1.000
    N2008    N        0.32444    0.38864    0.47047    1.000
    N2009    N        0.25602    0.38031    0.46445    1.000
    N2010    N        0.25721    0.39438    0.38908    1.000
    N2011    N        0.32401    0.37532    0.40312    1.000
    Si2012   Si       0.34938    0.41200    0.40038    1.000
    Si2013   Si       0.28715    0.36550    0.38112    1.000
    Si2014   Si       0.24216    0.39948    0.42936    1.000
    Si2015   Si       0.36469    0.40739    0.47396    1.000
    N2016    N        0.48874    0.37782    0.38275    1.000
    N2017    N        0.44977    0.40485    0.46162    1.000
    N2018    N        0.42629    0.36624    0.41469    1.000
    Si2019   Si       0.42512    0.40886    0.42464    1.000
    Si2020   Si       0.44802    0.36608    0.37675    1.000
    Si2021   Si       0.43295    0.37730    0.49123    1.000
    N2022    N        0.37991    0.41287    0.43461    1.000
    Si2023   Si       0.26358    0.40295    0.53823    1.000
    Si2024   Si       0.27761    0.38531    0.61197    1.000
    N2025    N        0.26977    0.41384    0.57936    1.000
    Si2026   Si       0.45811    0.39260    0.56322    1.000
    N2027    N        0.41797    0.40843    0.57274    1.000
    N2028    N        0.46187    0.37472    0.52446    1.000
    Si2029   Si       0.40443    0.39924    0.61408    1.000
    N2030    N        0.39009    0.38570    0.50618    1.000
    N2031    N        0.38202    0.36420    0.61321    1.000
    Si2032   Si       0.38566    0.41491    0.53999    1.000
    Si2033   Si       0.29218    0.39201    0.73966    1.000
    Si2034   Si       0.31607    0.40726    0.67116    1.000
    N2035    N        0.34745    0.37651    0.68048    1.000
    Si2036   Si       0.24415    0.38038    0.67836    1.000
    N2037    N        0.28396    0.38912    0.69395    1.000
    N2038    N        0.31709    0.39901    0.62593    1.000
    N2039    N        0.24083    0.39184    0.63520    1.000
    Si2040   Si       0.34710    0.36293    0.63778    1.000
    N2041    N        0.43437    0.41128    0.72708    1.000
    Si2042   Si       0.48064    0.41268    0.63737    1.000
    N2043    N        0.43678    0.41504    0.63991    1.000
    Si2044   Si       0.41190    0.38034    0.74702    1.000
    N2045    N        0.27156    0.39353    0.82967    1.000
    N2046    N        0.25349    0.38632    0.75586    1.000
    N2047    N        0.33943    0.37314    0.82068    1.000
    Si2048   Si       0.30771    0.38630    0.85112    1.000
    Si2049   Si       0.25426    0.36801    0.79751    1.000
    Si2050   Si       0.37039    0.39675    0.80620    1.000
    N2051    N        0.40433    0.38062    0.82677    1.000
    N2052    N        0.38204    0.40427    0.76548    1.000
    N2053    N        0.46587    0.40612    0.84913    1.000
    Si2054   Si       0.44566    0.36869    0.84427    1.000
    Si2055   Si       0.46777    0.40398    0.75651    1.000
    N2056    N        0.44941    0.36858    0.76775    1.000
    N2057    N        0.31854    0.37222    0.94715    1.000
    N2058    N        0.35697    0.37838    0.89026    1.000
    Si2059   Si       0.31371    0.41521    0.94989    1.000
    Si2060   Si       0.41327    0.41090    0.97720    1.000
    Si2061   Si       0.42195    0.36609    0.91828    1.000
    N2062    N        0.46018    0.38949    0.92110    1.000
    N2063    N        0.39870    0.39630    0.93591    1.000
    N2064    N        0.41568    0.36593    0.99287    1.000
    Si2065   Si       0.37111    0.41630    0.90913    1.000
    Si2066   Si       0.31125    0.44319    0.08209    1.000
    N2067    N        0.27671    0.46610    0.06900    1.000
    N2068    N        0.34518    0.46998    0.08905    1.000
    Si2069   Si       0.27515    0.44418    0.00796    1.000
    Si2070   Si       0.24126    0.44040    0.06683    1.000
    N2071    N        0.40915    0.46498    0.06452    1.000
    Si2072   Si       0.38595    0.45587    0.09906    1.000
    Si2073   Si       0.40674    0.42786    0.03754    1.000
    N2074    N        0.37522    0.42962    0.00742    1.000
    N2075    N        0.44077    0.42300    0.00986    1.000
    N2076    N        0.30938    0.42154    0.11944    1.000
    N2077    N        0.34389    0.45379    0.16573    1.000
    Si2078   Si       0.30370    0.45771    0.18101    1.000
    N2079    N        0.26736    0.46196    0.15724    1.000
    N2080    N        0.34874    0.42017    0.23808    1.000
    N2081    N        0.29251    0.42373    0.20489    1.000
    Si2082   Si       0.47239    0.47603    0.20747    1.000
    Si2083   Si       0.47919    0.45232    0.14421    1.000
    N2084    N        0.44866    0.42145    0.14412    1.000
    N2085    N        0.45782    0.43555    0.21163    1.000
    Si2086   Si       0.25337    0.43592    0.28180    1.000
    N2087    N        0.35348    0.45683    0.29996    1.000
    N2088    N        0.29280    0.45536    0.26625    1.000
    Si2089   Si       0.24531    0.42156    0.35806    1.000
    Si2090   Si       0.37084    0.45744    0.33974    1.000
    Si2091   Si       0.43832    0.46139    0.29809    1.000
    N2092    N        0.41307    0.44225    0.26825    1.000
    N2093    N        0.47007    0.43326    0.30620    1.000
    N2094    N        0.41461    0.46417    0.33587    1.000
    Si2095   Si       0.37164    0.42773    0.27382    1.000
    N2096    N        0.32250    0.44577    0.40166    1.000
    Si2097   Si       0.28507    0.45955    0.41262    1.000
    N2098    N        0.25665    0.45998    0.37720    1.000
    N2099    N        0.26675    0.43644    0.44259    1.000
    N2100    N        0.35923    0.44429    0.49583    1.000
    Si2101   Si       0.43946    0.46546    0.37143    1.000
    N2102    N        0.44875    0.42784    0.39221    1.000
    N2103    N        0.42162    0.47401    0.46881    1.000
    Si2104   Si       0.27226    0.45674    0.59002    1.000
    Si2105   Si       0.32729    0.44542    0.52584    1.000
    N2106    N        0.31250    0.47064    0.59869    1.000
    Si2107   Si       0.33832    0.43373    0.60217    1.000
    N2108    N        0.28698    0.43058    0.51004    1.000
    Si2109   Si       0.27411    0.47345    0.51226    1.000
    N2110    N        0.34629    0.42530    0.55934    1.000
    N2111    N        0.42988    0.47601    0.60289    1.000
    N2112    N        0.40460    0.45872    0.53747    1.000
    N2113    N        0.46957    0.43535    0.55117    1.000
    Si2114   Si       0.43258    0.45231    0.56765    1.000
    Si2115   Si       0.39210    0.47118    0.49795    1.000
    N2116    N        0.31282    0.44869    0.68051    1.000
    N2117    N        0.26352    0.47229    0.73111    1.000
    N2118    N        0.37795    0.43467    0.62220    1.000
    Si2119   Si       0.41401    0.45285    0.63701    1.000
    Si2120   Si       0.44004    0.45082    0.71127    1.000
    N2121    N        0.42239    0.47147    0.67635    1.000
    N2122    N        0.48362    0.44925    0.70682    1.000
    N2123    N        0.36795    0.46884    0.74296    1.000
    Si2124   Si       0.34565    0.44931    0.84838    1.000
    N2125    N        0.25606    0.45397    0.79850    1.000
    Si2126   Si       0.28344    0.46449    0.76915    1.000
    Si2127   Si       0.35122    0.43628    0.76493    1.000
    Si2128   Si       0.24916    0.43049    0.83387    1.000
    N2129    N        0.31030    0.42897    0.75447    1.000
    N2130    N        0.35458    0.43684    0.80932    1.000
    N2131    N        0.31423    0.42720    0.86768    1.000
    N2132    N        0.47507    0.43369    0.78610    1.000
    Si2133   Si       0.47153    0.47527    0.77118    1.000
    N2134    N        0.25284    0.45402    0.87145    1.000
    N2135    N        0.27579    0.42817    0.92892    1.000
    Si2136   Si       0.28907    0.45289    0.89618    1.000
    N2137    N        0.34363    0.43966    0.93407    1.000
    N2138    N        0.31019    0.42278    0.99167    1.000
    Si2139   Si       0.36692    0.45520    0.97264    1.000
    Si2140   Si       0.48019    0.42432    0.99377    1.000
    N2141    N        0.38076    0.44097    0.87447    1.000
    N2142    N        0.44291    0.45893    0.89946    1.000
    N2143    N        0.40666    0.45376    0.95843    1.000
    N2144    N        0.47639    0.45091    0.95986    1.000
    Si2145   Si       0.40591    0.47539    0.87985    1.000
    Si2146   Si       0.44339    0.47298    0.94207    1.000
    Si2147   Si       0.46298    0.42216    0.89144    1.000
    Si2148   Si       0.34375    0.51384    0.09720    1.000
    Si2149   Si       0.26372    0.50363    0.08329    1.000
    N2150    N        0.30116    0.52659    0.08975    1.000
    N2151    N        0.24155    0.52483    0.05136    1.000
    N2152    N        0.37594    0.52604    0.06829    1.000
    Si2153   Si       0.41743    0.50925    0.06385    1.000
    N2154    N        0.44987    0.51241    0.09586    1.000
    N2155    N        0.43706    0.53325    0.03438    1.000
    Si2156   Si       0.48092    0.53390    0.03183    1.000
    Si2157   Si       0.34115    0.51546    0.21565    1.000
    N2158    N        0.34484    0.52208    0.13966    1.000
    Si2159   Si       0.26602    0.51200    0.21333    1.000
    N2160    N        0.30446    0.49392    0.20283    1.000
    N2161    N        0.40088    0.48177    0.13208    1.000
    Si2162   Si       0.41710    0.52892    0.19750    1.000
    N2163    N        0.37903    0.50877    0.19484    1.000
    N2164    N        0.46470    0.48713    0.16265    1.000
    Si2165   Si       0.36842    0.48873    0.15765    1.000
    Si2166   Si       0.43596    0.50683    0.13651    1.000
    N2167    N        0.44762    0.50838    0.22123    1.000
    N2168    N        0.30576    0.51408    0.30954    1.000
    N2169    N        0.34670    0.51247    0.25763    1.000
    Si2170   Si       0.33261    0.52553    0.34174    1.000
    Si2171   Si       0.32306    0.48213    0.28187    1.000
    N2172    N        0.24042    0.52689    0.37141    1.000
    N2173    N        0.35902    0.49421    0.36023    1.000
    N2174    N        0.45626    0.50064    0.29161    1.000
    Si2175   Si       0.46706    0.52385    0.25734    1.000
    N2176    N        0.47418    0.49341    0.36531    1.000
    Si2177   Si       0.48576    0.50746    0.32442    1.000
    N2178    N        0.24428    0.49323    0.48694    1.000
    Si2179   Si       0.24562    0.50665    0.44747    1.000
    N2180    N        0.28678    0.50076    0.43047    1.000
    Si2181   Si       0.31746    0.52834    0.41981    1.000
    N2182    N        0.35909    0.51867    0.42639    1.000
    N2183    N        0.48886    0.52090    0.49021    1.000
    Si2184   Si       0.38467    0.51205    0.39101    1.000
    N2185    N        0.41738    0.48766    0.40102    1.000
    Si2186   Si       0.38454    0.53154    0.45908    1.000
    N2187    N        0.48297    0.49210    0.43127    1.000
    N2188    N        0.43059    0.53593    0.45432    1.000
    Si2189   Si       0.44065    0.49619    0.43652    1.000
    Si2190   Si       0.34094    0.52192    0.52220    1.000
    Si2191   Si       0.32003    0.51395    0.59209    1.000
    N2192    N        0.35350    0.52309    0.56448    1.000
    N2193    N        0.31430    0.48708    0.51716    1.000
    N2194    N        0.26009    0.47857    0.55408    1.000
    Si2195   Si       0.43377    0.51879    0.60879    1.000
    N2196    N        0.42242    0.53704    0.57094    1.000
    N2197    N        0.37604    0.51188    0.49819    1.000
    N2198    N        0.26451    0.49723    0.66125    1.000
    N2199    N        0.33086    0.52918    0.63451    1.000
    N2200    N        0.30661    0.51638    0.70272    1.000
    Si2201   Si       0.29525    0.52931    0.66188    1.000
    Si2202   Si       0.30852    0.53056    0.74331    1.000
    Si2203   Si       0.28578    0.47928    0.69626    1.000
    N2204    N        0.38670    0.52275    0.70649    1.000
    N2205    N        0.43921    0.48120    0.74244    1.000
    N2206    N        0.47416    0.53018    0.62196    1.000
    Si2207   Si       0.41531    0.51507    0.67622    1.000
    Si2208   Si       0.39771    0.49746    0.74070    1.000
    N2209    N        0.40082    0.52916    0.63790    1.000
    N2210    N        0.30634    0.50237    0.77586    1.000
    Si2211   Si       0.32184    0.51676    0.81499    1.000
    N2212    N        0.33782    0.49135    0.84673    1.000
    Si2213   Si       0.36649    0.52185    0.86463    1.000
    N2214    N        0.46122    0.49695    0.80690    1.000
    N2215    N        0.40476    0.50586    0.84911    1.000
    Si2216   Si       0.42314    0.51789    0.81149    1.000
    N2217    N        0.40051    0.52256    0.77573    1.000
    N2218    N        0.48006    0.51918    0.87046    1.000
    Si2219   Si       0.34213    0.48684    0.92865    1.000
    N2220    N        0.30298    0.49084    0.91009    1.000
    N2221    N        0.34474    0.49314    0.97121    1.000
    Si2222   Si       0.27545    0.52251    0.92396    1.000
    Si2223   Si       0.30965    0.51326    0.98856    1.000
    Si2224   Si       0.23970    0.48983    0.97405    1.000
    N2225    N        0.27723    0.48694    0.99962    1.000
    N2226    N        0.48815    0.53205    0.98855    1.000
    N2227    N        0.37539    0.50107    0.90489    1.000
    Si2228   Si       0.39685    0.53362    0.92629    1.000
    N2229    N        0.43022    0.51484    0.94682    1.000
    Si2230   Si       0.30083    0.56906    0.09972    1.000
    N2231    N        0.33969    0.57946    0.08284    1.000
    Si2232   Si       0.35166    0.55626    0.04883    1.000
    Si2233   Si       0.24396    0.56773    0.04629    1.000
    N2234    N        0.26854    0.58720    0.07740    1.000
    N2235    N        0.26589    0.59187    0.01625    1.000
    N2236    N        0.32317    0.53849    0.02209    1.000
    N2237    N        0.37920    0.58056    0.02313    1.000
    Si2238   Si       0.42070    0.56924    0.01963    1.000
    N2239    N        0.33216    0.55741    0.20183    1.000
    Si2240   Si       0.30062    0.57287    0.22839    1.000
    Si2241   Si       0.26598    0.57790    0.16711    1.000
    Si2242   Si       0.33743    0.56018    0.16017    1.000
    N2243    N        0.30113    0.57642    0.14248    1.000
    N2244    N        0.25109    0.53787    0.18178    1.000
    Si2245   Si       0.40862    0.58316    0.16366    1.000
    N2246    N        0.41278    0.57314    0.20665    1.000
    N2247    N        0.36992    0.58662    0.14512    1.000
    N2248    N        0.49049    0.57089    0.13530    1.000
    N2249    N        0.42306    0.54294    0.15581    1.000
    Si2250   Si       0.42276    0.58692    0.24606    1.000
    N2251    N        0.26215    0.56492    0.32546    1.000
    Si2252   Si       0.35162    0.55257    0.27465    1.000
    N2253    N        0.32487    0.58583    0.26231    1.000
    N2254    N        0.35860    0.54783    0.31766    1.000
    Si2255   Si       0.27347    0.55546    0.36888    1.000
    N2256    N        0.27913    0.53990    0.24491    1.000
    Si2257   Si       0.27532    0.53933    0.29073    1.000
    N2258    N        0.45981    0.56955    0.26530    1.000
    Si2259   Si       0.46473    0.57893    0.30986    1.000
    N2260    N        0.38828    0.57920    0.27017    1.000
    Si2261   Si       0.38641    0.58200    0.31459    1.000
    N2262    N        0.42610    0.58455    0.32840    1.000
    Si2263   Si       0.41933    0.58678    0.37329    1.000
    N2264    N        0.31229    0.53965    0.37786    1.000
    Si2265   Si       0.26553    0.58302    0.43742    1.000
    Si2266   Si       0.33089    0.57995    0.47710    1.000
    N2267    N        0.30672    0.56490    0.44525    1.000
    N2268    N        0.26738    0.58863    0.39446    1.000
    Si2269   Si       0.46318    0.55441    0.47607    1.000
    N2270    N        0.46034    0.59055    0.38629    1.000
    N2271    N        0.48387    0.58583    0.45425    1.000
    N2272    N        0.37268    0.57139    0.47483    1.000
    N2273    N        0.39829    0.55198    0.38240    1.000
    Si2274   Si       0.28389    0.56379    0.54042    1.000
    N2275    N        0.31705    0.55676    0.51414    1.000
    Si2276   Si       0.25651    0.55783    0.60908    1.000
    N2277    N        0.24399    0.54781    0.53523    1.000
    N2278    N        0.28985    0.54552    0.58108    1.000
    N2279    N        0.23998    0.59554    0.59986    1.000
    N2280    N        0.37920    0.57961    0.60600    1.000
    Si2281   Si       0.45185    0.56362    0.55301    1.000
    N2282    N        0.44146    0.57189    0.51062    1.000
    N2283    N        0.38127    0.58603    0.54310    1.000
    Si2284   Si       0.38322    0.55194    0.57022    1.000
    Si2285   Si       0.39983    0.58891    0.50370    1.000
    N2286    N        0.35332    0.57838    0.67587    1.000
    N2287    N        0.27339    0.56351    0.64845    1.000
    N2288    N        0.34505    0.55525    0.74820    1.000
    N2289    N        0.27433    0.55693    0.74737    1.000
    N2290    N        0.44936    0.54172    0.68456    1.000
    Si2291   Si       0.44075    0.58296    0.69409    1.000
    Si2292   Si       0.36949    0.56117    0.71139    1.000
    Si2293   Si       0.36546    0.55534    0.64174    1.000
    N2294    N        0.40483    0.58655    0.71606    1.000
    Si2295   Si       0.25825    0.55014    0.85882    1.000
    Si2296   Si       0.32733    0.57150    0.84466    1.000
    N2297    N        0.35369    0.54778    0.81808    1.000
    N2298    N        0.29326    0.54474    0.83600    1.000
    N2299    N        0.39299    0.59582    0.78431    1.000
    Si2300   Si       0.37427    0.55672    0.78030    1.000
    N2301    N        0.43315    0.55813    0.82423    1.000
    Si2302   Si       0.44756    0.54702    0.86385    1.000
    N2303    N        0.34534    0.55822    0.88192    1.000
    N2304    N        0.26684    0.55631    0.90040    1.000
    Si2305   Si       0.28675    0.58020    0.98139    1.000
    N2306    N        0.28470    0.54025    0.96320    1.000
    Si2307   Si       0.35392    0.58534    0.91317    1.000
    Si2308   Si       0.25032    0.59423    0.91405    1.000
    Si2309   Si       0.48186    0.59350    0.91029    1.000
    N2310    N        0.46755    0.58655    0.87023    1.000
    Si2311   Si       0.36445    0.58943    0.98076    1.000
    N2312    N        0.48057    0.55658    0.92898    1.000
    Si2313   Si       0.45741    0.54569    0.96227    1.000
    N2314    N        0.41687    0.55326    0.89261    1.000
    N2315    N        0.36897    0.56079    0.94694    1.000
    N2316    N        0.43536    0.57960    0.97844    1.000
    Si2317   Si       0.27343    0.62170    0.04900    1.000
    N2318    N        0.30897    0.64690    0.05249    1.000
    Si2319   Si       0.36254    0.60636    0.10798    1.000
    N2320    N        0.46520    0.63125    0.09761    1.000
    Si2321   Si       0.39318    0.61971    0.04257    1.000
    N2322    N        0.39473    0.62591    0.08655    1.000
    Si2323   Si       0.47131    0.61040    0.05796    1.000
    N2324    N        0.43456    0.60635    0.03807    1.000
    Si2325   Si       0.42230    0.64091    0.11595    1.000
    N2326    N        0.37421    0.65157    0.01998    1.000
    N2327    N        0.34100    0.64337    0.12086    1.000
    Si2328   Si       0.27827    0.64312    0.19791    1.000
    N2329    N        0.25314    0.64288    0.16192    1.000
    N2330    N        0.27993    0.60036    0.20347    1.000
    N2331    N        0.43459    0.61455    0.15064    1.000
    Si2332   Si       0.47418    0.64552    0.23850    1.000
    Si2333   Si       0.47605    0.61123    0.13716    1.000
    N2334    N        0.43289    0.62890    0.24015    1.000
    Si2335   Si       0.34667    0.62272    0.27468    1.000
    N2336    N        0.27344    0.64158    0.32785    1.000
    Si2337   Si       0.24776    0.60752    0.32160    1.000
    N2338    N        0.35991    0.61714    0.31684    1.000
    Si2339   Si       0.36115    0.64009    0.35429    1.000
    Si2340   Si       0.27289    0.65328    0.28359    1.000
    N2341    N        0.24559    0.61785    0.27875    1.000
    N2342    N        0.49157    0.60850    0.32613    1.000
    N2343    N        0.36748    0.65045    0.24937    1.000
    N2344    N        0.26484    0.62042    0.45916    1.000
    N2345    N        0.33421    0.62328    0.47549    1.000
    Si2346   Si       0.29656    0.64537    0.47075    1.000
    N2347    N        0.32579    0.65215    0.37817    1.000
    N2348    N        0.43931    0.63630    0.43489    1.000
    N2349    N        0.40606    0.62856    0.49111    1.000
    Si2350   Si       0.37197    0.64574    0.47009    1.000
    N2351    N        0.39142    0.61966    0.37717    1.000
    Si2352   Si       0.44057    0.65058    0.47531    1.000
    Si2353   Si       0.40954    0.64922    0.40538    1.000
    Si2354   Si       0.47185    0.61057    0.42173    1.000
    N2355    N        0.37349    0.65864    0.42838    1.000
    Si2356   Si       0.26505    0.64409    0.53231    1.000
    N2357    N        0.35303    0.64633    0.55370    1.000
    Si2358   Si       0.27491    0.62208    0.59155    1.000
    N2359    N        0.28004    0.60721    0.55175    1.000
    Si2360   Si       0.37303    0.61529    0.57495    1.000
    N2361    N        0.39975    0.63769    0.60071    1.000
    Si2362   Si       0.47476    0.63033    0.58399    1.000
    Si2363   Si       0.41860    0.59994    0.61675    1.000
    N2364    N        0.44805    0.59653    0.58326    1.000
    Si2365   Si       0.27414    0.60510    0.66019    1.000
    N2366    N        0.29541    0.62695    0.62859    1.000
    Si2367   Si       0.33768    0.61854    0.69119    1.000
    N2368    N        0.35329    0.62837    0.73130    1.000
    N2369    N        0.29598    0.60978    0.69975    1.000
    Si2370   Si       0.27382    0.60010    0.73485    1.000
    Si2371   Si       0.46108    0.62718    0.74874    1.000
    N2372    N        0.42214    0.64571    0.74742    1.000
    N2373    N        0.44032    0.60514    0.65502    1.000
    Si2374   Si       0.46477    0.64155    0.65280    1.000
    N2375    N        0.46988    0.59788    0.72050    1.000
    Si2376   Si       0.39202    0.61506    0.74652    1.000
    N2377    N        0.31454    0.61203    0.84395    1.000
    N2378    N        0.29225    0.61950    0.76830    1.000
    Si2379   Si       0.29932    0.63546    0.80927    1.000
    N2380    N        0.25879    0.64794    0.82244    1.000
    Si2381   Si       0.32174    0.64958    0.75140    1.000
    Si2382   Si       0.24202    0.62432    0.85459    1.000
    N2383    N        0.42182    0.62322    0.84487    1.000
    N2384    N        0.46349    0.61067    0.78918    1.000
    Si2385   Si       0.42768    0.59772    0.81111    1.000
    Si2386   Si       0.30817    0.63999    0.87736    1.000
    N2387    N        0.32953    0.62519    0.91487    1.000
    N2388    N        0.26556    0.63232    0.89012    1.000
    Si2389   Si       0.30751    0.63145    0.94985    1.000
    N2390    N        0.27036    0.60614    0.95034    1.000
    N2391    N        0.32413    0.60338    0.98143    1.000
    N2392    N        0.38340    0.62298    0.96145    1.000
    N2393    N        0.43371    0.65445    0.97708    1.000
    Si2394   Si       0.42550    0.61615    0.95719    1.000
    N2395    N        0.44461    0.61408    0.91973    1.000
    Si2396   Si       0.42688    0.60008    0.88228    1.000
    N2397    N        0.38597    0.61065    0.89474    1.000
    Si2398   Si       0.36962    0.64786    0.91540    1.000
    Si2399   Si       0.33737    0.67176    0.02983    1.000
    N2400    N        0.34404    0.69551    0.06579    1.000
    Si2401   Si       0.32134    0.66775    0.09088    1.000
    N2402    N        0.29309    0.69075    0.11087    1.000
    N2403    N        0.32214    0.69979    0.00254    1.000
    N2404    N        0.45905    0.70183    0.07468    1.000
    N2405    N        0.46044    0.71104    0.00300    1.000
    Si2406   Si       0.48538    0.66807    0.08221    1.000
    N2407    N        0.41559    0.68275    0.12572    1.000
    Si2408   Si       0.34976    0.66305    0.15892    1.000
    N2409    N        0.31491    0.66240    0.18329    1.000
    Si2410   Si       0.26376    0.68050    0.14070    1.000
    Si2411   Si       0.31153    0.70821    0.18206    1.000
    N2412    N        0.35632    0.70761    0.15216    1.000
    N2413    N        0.26894    0.70927    0.17224    1.000
    N2414    N        0.25673    0.65958    0.23149    1.000
    N2415    N        0.32577    0.71296    0.22445    1.000
    N2416    N        0.41528    0.69638    0.23780    1.000
    Si2417   Si       0.39987    0.69922    0.16331    1.000
    N2418    N        0.47752    0.68416    0.21486    1.000
    N2419    N        0.38832    0.66243    0.18410    1.000
    Si2420   Si       0.40268    0.65742    0.22545    1.000
    N2421    N        0.25944    0.69528    0.28484    1.000
    N2422    N        0.30108    0.70501    0.34429    1.000
    Si2423   Si       0.28819    0.66749    0.36013    1.000
    Si2424   Si       0.34020    0.68471    0.25448    1.000
    Si2425   Si       0.34401    0.71097    0.35510    1.000
    N2426    N        0.31536    0.65665    0.27741    1.000
    N2427    N        0.37535    0.67873    0.34398    1.000
    Si2428   Si       0.47323    0.68748    0.30290    1.000
    Si2429   Si       0.41380    0.69637    0.34613    1.000
    N2430    N        0.43032    0.69079    0.30535    1.000
    Si2431   Si       0.40390    0.71111    0.27656    1.000
    N2432    N        0.25361    0.66481    0.38752    1.000
    Si2433   Si       0.33505    0.67491    0.41475    1.000
    N2434    N        0.30325    0.68035    0.44299    1.000
    N2435    N        0.36249    0.68345    0.48999    1.000
    N2436    N        0.47572    0.66297    0.49788    1.000
    Si2437   Si       0.46893    0.70564    0.48902    1.000
    Si2438   Si       0.47793    0.67283    0.37937    1.000
    N2439    N        0.42831    0.69427    0.47308    1.000
    N2440    N        0.48389    0.71167    0.39809    1.000
    N2441    N        0.43358    0.67249    0.37860    1.000
    N2442    N        0.32560    0.68530    0.60746    1.000
    Si2443   Si       0.33695    0.67048    0.52227    1.000
    N2444    N        0.33537    0.70341    0.55046    1.000
    Si2445   Si       0.29815    0.69315    0.57451    1.000
    N2446    N        0.26715    0.66171    0.57331    1.000
    Si2447   Si       0.36016    0.68036    0.57987    1.000
    N2448    N        0.29712    0.66144    0.51058    1.000
    N2449    N        0.45825    0.67074    0.57527    1.000
    Si2450   Si       0.42472    0.67353    0.60359    1.000
    N2451    N        0.39511    0.70221    0.58708    1.000
    Si2452   Si       0.48236    0.70359    0.56039    1.000
    N2453    N        0.27972    0.68582    0.66571    1.000
    N2454    N        0.29782    0.68071    0.73300    1.000
    Si2455   Si       0.31089    0.66527    0.64190    1.000
    Si2456   Si       0.29091    0.70989    0.70159    1.000
    Si2457   Si       0.35931    0.69830    0.68318    1.000
    N2458    N        0.34237    0.65964    0.67098    1.000
    Si2459   Si       0.41985    0.70265    0.67340    1.000
    N2460    N        0.39484    0.69437    0.70870    1.000
    Si2461   Si       0.40974    0.68733    0.74869    1.000
    N2462    N        0.43862    0.67498    0.64643    1.000
    N2463    N        0.32920    0.66381    0.79290    1.000
    Si2464   Si       0.34240    0.70638    0.79629    1.000
    Si2465   Si       0.27664    0.70697    0.76210    1.000
    Si2466   Si       0.27890    0.71154    0.86422    1.000
    Si2467   Si       0.34848    0.70817    0.87139    1.000
    N2468    N        0.31087    0.68289    0.86859    1.000
    Si2469   Si       0.40937    0.66471    0.85564    1.000
    N2470    N        0.42231    0.68895    0.82209    1.000
    Si2471   Si       0.46518    0.69559    0.84173    1.000
    N2472    N        0.38271    0.70712    0.77461    1.000
    N2473    N        0.44591    0.70898    0.76287    1.000
    Si2474   Si       0.48912    0.70180    0.76057    1.000
    N2475    N        0.25412    0.70226    0.89797    1.000
    Si2476   Si       0.28189    0.69913    0.98421    1.000
    N2477    N        0.28712    0.67161    0.94930    1.000
    Si2478   Si       0.25666    0.66446    0.92014    1.000
    N2479    N        0.24207    0.68484    0.99449    1.000
    Si2480   Si       0.39116    0.66513    0.98030    1.000
    N2481    N        0.39194    0.70898    0.99573    1.000
    N2482    N        0.37406    0.67053    0.87664    1.000
    Si2483   Si       0.47041    0.67467    0.98220    1.000
    N2484    N        0.48006    0.68440    0.93778    1.000
    Si2485   Si       0.45527    0.70864    0.91223    1.000
    N2486    N        0.37448    0.68180    0.94098    1.000
    N2487    N        0.44060    0.68659    0.87867    1.000
    Si2488   Si       0.25341    0.75579    0.02962    1.000
    N2489    N        0.33087    0.75968    0.09844    1.000
    N2490    N        0.26031    0.76095    0.10467    1.000
    Si2491   Si       0.35851    0.73786    0.06902    1.000
    N2492    N        0.35669    0.75900    0.03118    1.000
    Si2493   Si       0.26170    0.71928    0.09558    1.000
    N2494    N        0.25666    0.71802    0.05280    1.000
    Si2495   Si       0.35359    0.73112    0.99922    1.000
    Si2496   Si       0.42944    0.71615    0.10170    1.000
    N2497    N        0.39511    0.73956    0.08932    1.000
    N2498    N        0.47259    0.76320    0.04969    1.000
    Si2499   Si       0.47576    0.72186    0.04063    1.000
    N2500    N        0.44788    0.75686    0.11847    1.000
    Si2501   Si       0.23797    0.73482    0.18469    1.000
    Si2502   Si       0.33972    0.75287    0.21791    1.000
    N2503    N        0.32120    0.75392    0.17502    1.000
    Si2504   Si       0.34572    0.74865    0.13935    1.000
    Si2505   Si       0.45278    0.75849    0.16058    1.000
    N2506    N        0.42934    0.72617    0.17968    1.000
    N2507    N        0.37998    0.76789    0.21806    1.000
    N2508    N        0.46282    0.75383    0.23266    1.000
    Si2509   Si       0.44651    0.71615    0.21728    1.000
    Si2510   Si       0.34292    0.75163    0.29699    1.000
    N2511    N        0.30091    0.75661    0.29947    1.000
    Si2512   Si       0.27800    0.72310    0.31252    1.000
    N2513    N        0.35628    0.74831    0.33795    1.000
    N2514    N        0.24418    0.74942    0.31964    1.000
    N2515    N        0.36021    0.71587    0.28003    1.000
    Si2516   Si       0.46059    0.75711    0.27722    1.000
    N2517    N        0.41741    0.75099    0.27810    1.000
    N2518    N        0.42027    0.73505    0.35947    1.000
    Si2519   Si       0.38681    0.76439    0.36503    1.000
    N2520    N        0.48829    0.72390    0.28557    1.000
    Si2521   Si       0.34871    0.74942    0.42239    1.000
    N2522    N        0.30759    0.75088    0.44233    1.000
    N2523    N        0.24907    0.72894    0.42607    1.000
    Si2524   Si       0.28170    0.71807    0.45069    1.000
    N2525    N        0.26324    0.72052    0.49045    1.000
    N2526    N        0.34738    0.71299    0.39939    1.000
    Si2527   Si       0.39215    0.71526    0.48369    1.000
    N2528    N        0.43329    0.76224    0.41501    1.000
    Si2529   Si       0.45600    0.74509    0.38327    1.000
    N2530    N        0.44490    0.76933    0.48415    1.000
    N2531    N        0.38015    0.74511    0.45416    1.000
    Si2532   Si       0.48688    0.77075    0.47278    1.000
    Si2533   Si       0.27964    0.74502    0.52553    1.000
    Si2534   Si       0.35392    0.74212    0.54409    1.000
    N2535    N        0.32077    0.76003    0.52299    1.000
    N2536    N        0.27112    0.72187    0.56093    1.000
    N2537    N        0.35865    0.75748    0.58832    1.000
    N2538    N        0.46186    0.72376    0.52672    1.000
    Si2539   Si       0.43238    0.75585    0.52475    1.000
    N2540    N        0.39302    0.73965    0.52096    1.000
    Si2541   Si       0.38648    0.73533    0.61166    1.000
    Si2542   Si       0.46091    0.76256    0.59395    1.000
    N2543    N        0.42611    0.75523    0.61987    1.000
    N2544    N        0.48879    0.72976    0.59350    1.000
    N2545    N        0.32944    0.72711    0.69262    1.000
    N2546    N        0.25849    0.72898    0.72517    1.000
    Si2547   Si       0.34597    0.76837    0.69920    1.000
    Si2548   Si       0.25147    0.77379    0.72540    1.000
    N2549    N        0.43952    0.73920    0.68799    1.000
    N2550    N        0.38485    0.71677    0.65168    1.000
    Si2551   Si       0.41634    0.76616    0.66178    1.000
    Si2552   Si       0.48194    0.74125    0.69981    1.000
    N2553    N        0.31047    0.72775    0.77654    1.000
    N2554    N        0.34856    0.72775    0.83272    1.000
    Si2555   Si       0.32868    0.76489    0.84077    1.000
    N2556    N        0.29674    0.74978    0.87112    1.000
    Si2557   Si       0.32026    0.76926    0.76554    1.000
    N2558    N        0.24854    0.71846    0.83513    1.000
    N2559    N        0.45747    0.73994    0.82341    1.000
    Si2560   Si       0.42033    0.72408    0.79652    1.000
    N2561    N        0.40797    0.76980    0.79292    1.000
    N2562    N        0.26894    0.74467    0.98887    1.000
    N2563    N        0.35791    0.74952    0.96065    1.000
    N2564    N        0.24405    0.76953    0.91884    1.000
    N2565    N        0.47697    0.74737    0.90329    1.000
    Si2566   Si       0.38230    0.72399    0.93568    1.000
    N2567    N        0.42473    0.73154    0.93692    1.000
    N2568    N        0.36898    0.73924    0.89757    1.000
    Si2569   Si       0.44384    0.76989    0.92265    1.000
    Si2570   Si       0.42637    0.73089    0.98310    1.000
    N2571    N        0.27966    0.82002    0.10489    1.000
    Si2572   Si       0.28657    0.81405    0.01098    1.000
    N2573    N        0.28276    0.78538    0.04431    1.000
    Si2574   Si       0.29480    0.78171    0.08604    1.000
    N2575    N        0.35169    0.82716    0.05442    1.000
    Si2576   Si       0.24055    0.79663    0.11305    1.000
    Si2577   Si       0.35974    0.80170    0.01996    1.000
    Si2578   Si       0.40616    0.77681    0.11212    1.000
    N2579    N        0.46612    0.82313    0.00879    1.000
    N2580    N        0.40355    0.81870    0.09756    1.000
    N2581    N        0.47409    0.81608    0.10009    1.000
    Si2582   Si       0.47365    0.77932    0.00821    1.000
    N2583    N        0.39183    0.82152    0.99838    1.000
    Si2584   Si       0.47917    0.77289    0.09067    1.000
    N2585    N        0.25432    0.77585    0.18510    1.000
    Si2586   Si       0.29493    0.78603    0.18871    1.000
    N2587    N        0.30984    0.82585    0.17416    1.000
    N2588    N        0.31145    0.78302    0.22953    1.000
    N2589    N        0.43469    0.79585    0.17214    1.000
    Si2590   Si       0.39440    0.79188    0.18417    1.000
    N2591    N        0.38110    0.83191    0.19887    1.000
    N2592    N        0.38024    0.77325    0.14684    1.000
    Si2593   Si       0.32255    0.81170    0.25921    1.000
    N2594    N        0.35427    0.78888    0.27751    1.000
    N2595    N        0.28943    0.82299    0.28442    1.000
    Si2596   Si       0.26512    0.78795    0.30314    1.000
    N2597    N        0.26037    0.80929    0.34284    1.000
    N2598    N        0.46406    0.79348    0.30168    1.000
    N2599    N        0.41349    0.82027    0.26160    1.000
    Si2600   Si       0.39244    0.78008    0.25899    1.000
    N2601    N        0.40686    0.80081    0.35551    1.000
    Si2602   Si       0.48789    0.80107    0.33618    1.000
    N2603    N        0.48626    0.77118    0.36837    1.000
    N2604    N        0.32948    0.80634    0.47104    1.000
    Si2605   Si       0.33982    0.82250    0.39657    1.000
    N2606    N        0.25465    0.79271    0.46102    1.000
    Si2607   Si       0.26102    0.82240    0.38388    1.000
    Si2608   Si       0.29640    0.79258    0.44549    1.000
    N2609    N        0.29787    0.81398    0.40539    1.000
    N2610    N        0.36059    0.78289    0.39714    1.000
    Si2611   Si       0.41318    0.77459    0.45216    1.000
    N2612    N        0.40480    0.81805    0.45411    1.000
    N2613    N        0.29923    0.80659    0.57746    1.000
    Si2614   Si       0.32435    0.80406    0.51394    1.000
    Si2615   Si       0.34136    0.79876    0.58291    1.000
    Si2616   Si       0.26926    0.81884    0.54939    1.000
    N2617    N        0.25873    0.78228    0.52742    1.000
    N2618    N        0.35661    0.80988    0.54388    1.000
    N2619    N        0.33953    0.82032    0.62170    1.000
    N2620    N        0.47880    0.80318    0.60516    1.000
    N2621    N        0.43972    0.78088    0.55797    1.000
    Si2622   Si       0.44297    0.82373    0.56308    1.000
    Si2623   Si       0.27572    0.80723    0.66894    1.000
    N2624    N        0.31720    0.79821    0.68156    1.000
    Si2625   Si       0.35396    0.81606    0.66091    1.000
    N2626    N        0.29146    0.78630    0.73872    1.000
    Si2627   Si       0.30942    0.82316    0.72153    1.000
    N2628    N        0.24156    0.78313    0.68406    1.000
    N2629    N        0.35585    0.77224    0.74227    1.000
    N2630    N        0.26545    0.82865    0.63330    1.000
    N2631    N        0.48656    0.78093    0.71685    1.000
    Si2632   Si       0.45272    0.82598    0.63058    1.000
    N2633    N        0.44117    0.80069    0.66464    1.000
    N2634    N        0.37687    0.78042    0.67140    1.000
    Si2635   Si       0.45106    0.80343    0.70417    1.000
    N2636    N        0.42086    0.80870    0.73451    1.000
    N2637    N        0.34597    0.79619    0.86530    1.000
    N2638    N        0.31900    0.78908    0.80489    1.000
    Si2639   Si       0.30038    0.83052    0.79848    1.000
    N2640    N        0.25631    0.82828    0.80446    1.000
    Si2641   Si       0.25038    0.82968    0.84657    1.000
    Si2642   Si       0.43982    0.78348    0.81755    1.000
    N2643    N        0.42726    0.82084    0.83538    1.000
    Si2644   Si       0.39030    0.79308    0.76216    1.000
    N2645    N        0.48034    0.79288    0.80226    1.000
    N2646    N        0.28101    0.81720    0.87671    1.000
    N2647    N        0.32470    0.80989    0.99245    1.000
    Si2648   Si       0.28040    0.77984    0.89743    1.000
    Si2649   Si       0.33700    0.78967    0.95572    1.000
    N2650    N        0.25698    0.81350    0.98038    1.000
    N2651    N        0.30043    0.77948    0.93679    1.000
    N2652    N        0.36188    0.81235    0.92727    1.000
    Si2653   Si       0.26278    0.77412    0.95888    1.000
    Si2654   Si       0.42980    0.82809    0.87815    1.000
    Si2655   Si       0.43401    0.81408    0.97740    1.000
    Si2656   Si       0.37383    0.78535    0.89689    1.000
    N2657    N        0.41825    0.78977    0.89467    1.000
    N2658    N        0.46063    0.80302    0.94265    1.000
    N2659    N        0.43380    0.77173    0.99133    1.000
    N2660    N        0.27574    0.85197    0.03393    1.000
    Si2661   Si       0.26010    0.84359    0.07304    1.000
    N2662    N        0.24196    0.88327    0.08473    1.000
    Si2663   Si       0.28761    0.89255    0.02304    1.000
    Si2664   Si       0.37071    0.84583    0.08728    1.000
    N2665    N        0.44549    0.86487    0.06195    1.000
    Si2666   Si       0.47693    0.85671    0.03225    1.000
    Si2667   Si       0.43982    0.84342    0.09907    1.000
    N2668    N        0.38320    0.88693    0.07380    1.000
    N2669    N        0.34120    0.85511    0.11607    1.000
    Si2670   Si       0.34034    0.84795    0.19768    1.000
    N2671    N        0.28470    0.87908    0.13765    1.000
    N2672    N        0.33344    0.84918    0.24048    1.000
    Si2673   Si       0.30356    0.83894    0.13370    1.000
    N2674    N        0.33743    0.88646    0.18017    1.000
    Si2675   Si       0.32787    0.89107    0.13791    1.000
    Si2676   Si       0.45203    0.83481    0.17508    1.000
    Si2677   Si       0.40624    0.84959    0.23125    1.000
    N2678    N        0.44496    0.86031    0.13912    1.000
    Si2679   Si       0.48242    0.87661    0.14978    1.000
    Si2680   Si       0.47311    0.87247    0.24251    1.000
    N2681    N        0.44564    0.85072    0.21436    1.000
    N2682    N        0.28393    0.87252    0.33309    1.000
    Si2683   Si       0.26898    0.86134    0.29304    1.000
    N2684    N        0.34664    0.84402    0.35763    1.000
    Si2685   Si       0.32667    0.87686    0.33791    1.000
    Si2686   Si       0.32788    0.88734    0.25909    1.000
    N2687    N        0.34671    0.88793    0.29981    1.000
    Si2688   Si       0.25434    0.89113    0.35956    1.000
    N2689    N        0.28490    0.89012    0.26593    1.000
    N2690    N        0.47084    0.84089    0.34294    1.000
    N2691    N        0.40916    0.85579    0.31441    1.000
    N2692    N        0.46540    0.86665    0.28382    1.000
    Si2693   Si       0.39172    0.83985    0.35364    1.000
    Si2694   Si       0.48406    0.87680    0.32251    1.000
    N2695    N        0.39817    0.88859    0.24935    1.000
    Si2696   Si       0.38937    0.88659    0.29333    1.000
    Si2697   Si       0.43999    0.83109    0.29658    1.000
    Si2698   Si       0.27699    0.88374    0.43036    1.000
    N2699    N        0.30662    0.88200    0.46294    1.000
    N2700    N        0.24927    0.86696    0.39640    1.000
    N2701    N        0.35457    0.85080    0.42560    1.000
    Si2702   Si       0.36343    0.83206    0.46326    1.000
    Si2703   Si       0.48928    0.83406    0.44088    1.000
    N2704    N        0.47184    0.83792    0.47956    1.000
    N2705    N        0.46103    0.85080    0.41314    1.000
    N2706    N        0.42118    0.88030    0.46111    1.000
    N2707    N        0.40997    0.86275    0.38569    1.000
    Si2708   Si       0.45241    0.86656    0.37397    1.000
    Si2709   Si       0.41718    0.85237    0.42887    1.000
    N2710    N        0.30086    0.87900    0.59969    1.000
    Si2711   Si       0.31687    0.87193    0.50437    1.000
    N2712    N        0.29527    0.83838    0.52057    1.000
    N2713    N        0.35826    0.85655    0.49928    1.000
    Si2714   Si       0.29920    0.83615    0.60906    1.000
    N2715    N        0.36560    0.86984    0.57552    1.000
    Si2716   Si       0.37694    0.84757    0.53920    1.000
    Si2717   Si       0.38951    0.86330    0.61131    1.000
    N2718    N        0.41971    0.84346    0.52965    1.000
    N2719    N        0.42202    0.83560    0.60018    1.000
    N2720    N        0.48394    0.83651    0.55042    1.000
    Si2721   Si       0.43976    0.86276    0.49661    1.000
    N2722    N        0.35072    0.84123    0.71235    1.000
    Si2723   Si       0.24698    0.86763    0.68336    1.000
    N2724    N        0.27235    0.83914    0.70062    1.000
    Si2725   Si       0.47225    0.88289    0.68382    1.000
    N2726    N        0.47136    0.84225    0.70695    1.000
    Si2727   Si       0.43819    0.85175    0.73829    1.000
    N2728    N        0.46214    0.86426    0.64452    1.000
    N2729    N        0.38364    0.85099    0.65400    1.000
    Si2730   Si       0.37349    0.87193    0.69227    1.000
    N2731    N        0.40669    0.87771    0.71866    1.000
    N2732    N        0.31098    0.85602    0.83309    1.000
    Si2733   Si       0.35394    0.85884    0.75556    1.000
    N2734    N        0.31361    0.84403    0.76129    1.000
    N2735    N        0.24481    0.87378    0.85588    1.000
    Si2736   Si       0.28325    0.88842    0.83728    1.000
    Si2737   Si       0.32066    0.83165    0.86962    1.000
    N2738    N        0.44633    0.85293    0.78041    1.000
    Si2739   Si       0.41142    0.84718    0.80603    1.000
    N2740    N        0.39936    0.88737    0.82000    1.000
    Si2741   Si       0.48473    0.83487    0.79353    1.000
    N2742    N        0.38083    0.83307    0.77894    1.000
    N2743    N        0.33380    0.86505    0.89334    1.000
    N2744    N        0.40316    0.86081    0.88889    1.000
    Si2745   Si       0.46878    0.87920    0.96645    1.000
    Si2746   Si       0.36946    0.85440    0.91750    1.000
    Si2747   Si       0.39549    0.86406    0.98545    1.000
    N2748    N        0.36609    0.87568    0.95636    1.000
    N2749    N        0.43250    0.85650    0.96297    1.000
    N2750    N        0.47149    0.84164    0.88867    1.000
    N2751    N        0.25358    0.91806    0.02721    1.000
    Si2752   Si       0.35136    0.91780    0.07349    1.000
    N2753    N        0.31791    0.90604    0.05037    1.000
    N2754    N        0.34502    0.92371    0.11667    1.000
    N2755    N        0.43675    0.93357    0.06321    1.000
    N2756    N        0.40616    0.90055    0.00786    1.000
    Si2757   Si       0.41790    0.89755    0.04907    1.000
    N2758    N        0.48101    0.89149    0.00811    1.000
    Si2759   Si       0.24614    0.89614    0.12612    1.000
    N2760    N        0.24882    0.93760    0.13567    1.000
    N2761    N        0.25531    0.90537    0.20125    1.000
    Si2762   Si       0.33983    0.92783    0.19459    1.000
    N2763    N        0.34071    0.92418    0.23917    1.000
    Si2764   Si       0.26955    0.94071    0.17901    1.000
    N2765    N        0.30971    0.94743    0.16654    1.000
    N2766    N        0.37946    0.94184    0.19295    1.000
    Si2767   Si       0.38876    0.92660    0.23242    1.000
    N2768    N        0.46833    0.91498    0.23401    1.000
    N2769    N        0.33426    0.91881    0.35045    1.000
    Si2770   Si       0.34991    0.93002    0.31256    1.000
    Si2771   Si       0.26310    0.91867    0.24319    1.000
    N2772    N        0.46989    0.90206    0.35491    1.000
    N2773    N        0.39384    0.92705    0.30902    1.000
    Si2774   Si       0.48464    0.93827    0.36715    1.000
    N2775    N        0.26415    0.93166    0.36865    1.000
    Si2776   Si       0.30734    0.93633    0.38046    1.000
    N2777    N        0.30967    0.89806    0.40528    1.000
    N2778    N        0.24438    0.90737    0.44499    1.000
    Si2779   Si       0.24857    0.94543    0.46938    1.000
    Si2780   Si       0.34190    0.89107    0.43516    1.000
    N2781    N        0.44697    0.94398    0.44036    1.000
    N2782    N        0.37092    0.92111    0.43987    1.000
    Si2783   Si       0.41321    0.92283    0.45794    1.000
    N2784    N        0.33817    0.93346    0.59668    1.000
    N2785    N        0.32028    0.90397    0.53105    1.000
    Si2786   Si       0.33182    0.89605    0.57544    1.000
    N2787    N        0.26875    0.94745    0.61426    1.000
    Si2788   Si       0.31277    0.94542    0.51988    1.000
    Si2789   Si       0.37900    0.94215    0.61213    1.000
    N2790    N        0.47789    0.92620    0.61277    1.000
    N2791    N        0.45766    0.89884    0.51392    1.000
    Si2792   Si       0.44418    0.93938    0.51989    1.000
    Si2793   Si       0.48612    0.94074    0.57313    1.000
    N2794    N        0.40477    0.90445    0.61361    1.000
    N2795    N        0.40648    0.94430    0.49571    1.000
    Si2796   Si       0.27127    0.90364    0.62155    1.000
    Si2797   Si       0.25024    0.93003    0.72234    1.000
    Si2798   Si       0.30559    0.91990    0.68595    1.000
    N2799    N        0.29435    0.92687    0.72768    1.000
    N2800    N        0.34546    0.90441    0.68655    1.000
    N2801    N        0.27517    0.89630    0.66398    1.000
    N2802    N        0.44225    0.91659    0.67220    1.000
    Si2803   Si       0.42444    0.91792    0.72267    1.000
    Si2804   Si       0.44514    0.90222    0.62912    1.000
    N2805    N        0.46409    0.89796    0.72693    1.000
    N2806    N        0.27684    0.90752    0.79905    1.000
    N2807    N        0.30237    0.92028    0.85946    1.000
    Si2808   Si       0.30752    0.91712    0.77018    1.000
    N2809    N        0.34756    0.89911    0.76937    1.000
    Si2810   Si       0.24506    0.93835    0.79954    1.000
    N2811    N        0.41173    0.92673    0.76384    1.000
    Si2812   Si       0.38177    0.91546    0.79069    1.000
    N2813    N        0.45539    0.90380    0.85983    1.000
    Si2814   Si       0.41236    0.89459    0.86235    1.000
    Si2815   Si       0.46647    0.94800    0.85531    1.000
    Si2816   Si       0.33991    0.91017    0.96140    1.000
    Si2817   Si       0.26619    0.90506    0.95856    1.000
    N2818    N        0.34026    0.92458    0.92166    1.000
    Si2819   Si       0.31170    0.90239    0.89726    1.000
    N2820    N        0.35428    0.94189    0.98491    1.000
    N2821    N        0.25351    0.94639    0.96079    1.000
    N2822    N        0.30177    0.89686    0.98009    1.000
    N2823    N        0.27278    0.89278    0.91535    1.000
    N2824    N        0.47507    0.91764    0.94445    1.000
    Si2825   Si       0.37778    0.94789    0.91249    1.000
    N2826    N        0.40914    0.93950    0.94307    1.000
    N2827    N        0.39766    0.93542    0.87448    1.000
    Si2828   Si       0.39764    0.93765    0.98581    1.000
    N2829    N        0.31436    0.98295    0.09706    1.000
    Si2830   Si       0.33967    0.99080    0.06361    1.000
    N2831    N        0.25062    0.99305    0.01239    1.000
    N2832    N        0.31812    0.99235    0.02727    1.000
    Si2833   Si       0.24365    0.95240    0.00303    1.000
    N2834    N        0.36675    0.95748    0.06123    1.000
    N2835    N        0.41410    0.96570    0.01278    1.000
    Si2836   Si       0.40933    0.96478    0.05373    1.000
    N2837    N        0.47859    0.98523    0.03097    1.000
    N2838    N        0.48061    0.97529    0.10072    1.000
    N2839    N        0.42043    0.99833    0.07827    1.000
    Si2840   Si       0.44217    0.99222    0.11486    1.000
    Si2841   Si       0.44504    0.99786    0.00379    1.000
    Si2842   Si       0.47423    0.95605    0.06261    1.000
    Si2843   Si       0.33006    0.96268    0.13057    1.000
    N2844    N        0.32417    0.99804    0.23016    1.000
    Si2845   Si       0.27862    0.99519    0.21642    1.000
    N2846    N        0.35897    0.99079    0.14950    1.000
    N2847    N        0.24287    0.97440    0.18512    1.000
    N2848    N        0.28174    0.95427    0.22906    1.000
    N2849    N        0.24387    0.00450    0.24389    1.000
    N2850    N        0.25764    0.01145    0.13159    1.000
    Si2851   Si       0.39152    0.97989    0.17703    1.000
    N2852    N        0.47352    0.97989    0.22279    1.000
    N2853    N        0.43078    0.97999    0.15697    1.000
    Si2854   Si       0.46211    0.99149    0.18411    1.000
    N2855    N        0.39578    0.01404    0.20569    1.000
    Si2856   Si       0.29717    0.98604    0.31365    1.000
    N2857    N        0.25508    0.97806    0.30997    1.000
    N2858    N        0.29872    0.98156    0.35622    1.000
    Si2859   Si       0.25248    0.97010    0.35356    1.000
    N2860    N        0.32490    0.96127    0.29322    1.000
    Si2861   Si       0.31926    0.96101    0.25137    1.000
    N2862    N        0.41482    0.99688    0.31556    1.000
    Si2863   Si       0.41994    0.95838    0.29502    1.000
    Si2864   Si       0.44184    0.99863    0.34913    1.000
    N2865    N        0.46308    0.95878    0.29194    1.000
    N2866    N        0.41302    0.95599    0.25242    1.000
    Si2867   Si       0.45647    0.95243    0.24855    1.000
    Si2868   Si       0.31740    0.00004    0.39201    1.000
    N2869    N        0.29107    0.95598    0.48408    1.000
    N2870    N        0.32810    0.96225    0.40891    1.000
    Si2871   Si       0.30913    0.99373    0.46708    1.000
    N2872    N        0.35340    0.98606    0.46884    1.000
    Si2873   Si       0.36216    0.96275    0.43516    1.000
    Si2874   Si       0.24895    0.00844    0.41958    1.000
    Si2875   Si       0.44015    0.97773    0.41366    1.000
    N2876    N        0.45099    0.96464    0.37448    1.000
    N2877    N        0.39625    0.98627    0.41710    1.000
    N2878    N        0.34723    0.97111    0.53288    1.000
    Si2879   Si       0.30240    0.95969    0.59235    1.000
    Si2880   Si       0.35516    0.99684    0.56763    1.000
    N2881    N        0.32348    0.99897    0.59616    1.000
    N2882    N        0.28396    0.95453    0.55114    1.000
    Si2883   Si       0.24345    0.96342    0.53992    1.000
    Si2884   Si       0.42464    0.99227    0.56555    1.000
    N2885    N        0.38971    0.97761    0.58751    1.000
    Si2886   Si       0.37827    0.97668    0.50315    1.000
    N2887    N        0.40389    0.00213    0.52662    1.000
    N2888    N        0.44695    0.95370    0.55995    1.000
    N2889    N        0.47276    0.96719    0.50274    1.000
    Si2890   Si       0.31531    0.96891    0.73301    1.000
    N2891    N        0.31069    0.96211    0.67437    1.000
    Si2892   Si       0.27817    0.98828    0.68312    1.000
    Si2893   Si       0.35108    0.97498    0.67414    1.000
    N2894    N        0.24561    0.96107    0.69025    1.000
    N2895    N        0.35556    0.97519    0.71832    1.000
    N2896    N        0.28757    0.00120    0.72317    1.000
    N2897    N        0.45254    0.97952    0.64684    1.000
    N2898    N        0.38515    0.95728    0.65248    1.000
    Si2899   Si       0.42612    0.95510    0.66958    1.000
    N2900    N        0.42028    0.96082    0.71061    1.000
    Si2901   Si       0.39386    0.98858    0.73224    1.000
    N2902    N        0.26509    0.97053    0.82169    1.000
    Si2903   Si       0.28986    0.96133    0.85646    1.000
    N2904    N        0.32643    0.98343    0.85008    1.000
    Si2905   Si       0.33720    0.97982    0.80998    1.000
    N2906    N        0.31743    0.96068    0.77616    1.000
    Si2907   Si       0.35739    0.00770    0.86846    1.000
    Si2908   Si       0.43275    0.96226    0.77939    1.000
    Si2909   Si       0.40026    0.96482    0.84326    1.000
    N2910    N        0.40742    0.99732    0.77209    1.000
    N2911    N        0.47219    0.95866    0.76324    1.000
    N2912    N        0.43865    0.96116    0.82390    1.000
    N2913    N        0.37147    0.95129    0.81351    1.000
    N2914    N        0.39147    0.00774    0.84183    1.000
    N2915    N        0.27200    0.96860    0.89450    1.000
    N2916    N        0.30679    0.98830    0.95632    1.000
    Si2917   Si       0.27022    0.97686    0.93638    1.000
    Si2918   Si       0.33452    0.98059    0.98768    1.000
    Si2919   Si       0.45162    0.95250    0.93372    1.000
    N2920    N        0.45538    0.98576    0.96326    1.000
    N2921    N        0.36893    0.99000    0.90616    1.000
    N2922    N        0.46117    0.96893    0.89363    1.000
    Si2923   Si       0.48630    0.00734    0.89274    1.000
    N2924    N        0.53175    0.04660    0.04532    1.000
    N2925    N        0.59258    0.03531    0.08008    1.000
    Si2926   Si       0.55329    0.02121    0.07132    1.000
    Si2927   Si       0.51271    0.05264    0.00625    1.000
    N2928    N        0.53427    0.01998    0.10991    1.000
    N2929    N        0.61282    0.00895    0.02002    1.000
    Si2930   Si       0.61818    0.03956    0.11667    1.000
    N2931    N        0.65484    0.02665    0.08574    1.000
    Si2932   Si       0.63083    0.03842    0.04885    1.000
    N2933    N        0.66852    0.03350    0.02122    1.000
    Si2934   Si       0.70616    0.05336    0.03003    1.000
    Si2935   Si       0.67997    0.05800    0.10359    1.000
    N2936    N        0.71172    0.06057    0.07273    1.000
    N2937    N        0.73597    0.02895    0.00944    1.000
    Si2938   Si       0.54800    0.05539    0.13213    1.000
    N2939    N        0.58936    0.05465    0.14706    1.000
    N2940    N        0.54373    0.01836    0.21763    1.000
    Si2941   Si       0.53822    0.05982    0.20347    1.000
    N2942    N        0.52123    0.05966    0.16557    1.000
    Si2943   Si       0.60575    0.05591    0.18665    1.000
    N2944    N        0.61384    0.03173    0.22088    1.000
    Si2945   Si       0.67639    0.05287    0.20642    1.000
    N2946    N        0.68881    0.01629    0.18562    1.000
    Si2947   Si       0.72162    0.04077    0.16916    1.000
    N2948    N        0.70887    0.06222    0.13581    1.000
    N2949    N        0.67008    0.05532    0.24858    1.000
    N2950    N        0.56101    0.04443    0.29255    1.000
    Si2951   Si       0.52262    0.04643    0.27273    1.000
    Si2952   Si       0.56764    0.05079    0.33651    1.000
    Si2953   Si       0.58780    0.00808    0.29687    1.000
    Si2954   Si       0.49387    0.05345    0.33820    1.000
    N2955    N        0.49130    0.06537    0.29743    1.000
    N2956    N        0.58295    0.00932    0.34116    1.000
    N2957    N        0.53141    0.06790    0.35217    1.000
    Si2958   Si       0.62760    0.05309    0.25770    1.000
    N2959    N        0.62600    0.02919    0.29277    1.000
    Si2960   Si       0.63873    0.05086    0.32805    1.000
    N2961    N        0.65897    0.02251    0.35299    1.000
    N2962    N        0.71052    0.02600    0.29734    1.000
    Si2963   Si       0.69844    0.01682    0.33710    1.000
    N2964    N        0.72321    0.04261    0.36241    1.000
    Si2965   Si       0.69549    0.06503    0.28311    1.000
    N2966    N        0.52934    0.03407    0.42615    1.000
    Si2967   Si       0.60472    0.03103    0.44584    1.000
    N2968    N        0.49330    0.03439    0.48729    1.000
    N2969    N        0.61616    0.01596    0.40554    1.000
    N2970    N        0.73603    0.03869    0.43074    1.000
    Si2971   Si       0.73459    0.05582    0.46900    1.000
    N2972    N        0.63896    0.03736    0.47308    1.000
    Si2973   Si       0.65730    0.01785    0.39558    1.000
    N2974    N        0.67489    0.05431    0.41265    1.000
    Si2975   Si       0.71606    0.06354    0.40037    1.000
    Si2976   Si       0.66468    0.06723    0.45158    1.000
    N2977    N        0.55787    0.02471    0.58737    1.000
    N2978    N        0.50462    0.05663    0.55275    1.000
    Si2979   Si       0.53674    0.06060    0.58309    1.000
    N2980    N        0.62725    0.04957    0.54649    1.000
    Si2981   Si       0.65704    0.02891    0.57230    1.000
    N2982    N        0.68688    0.03574    0.60443    1.000
    Si2983   Si       0.64003    0.02245    0.51369    1.000
    N2984    N        0.67847    0.01652    0.53424    1.000
    Si2985   Si       0.56561    0.05645    0.70885    1.000
    N2986    N        0.60626    0.04740    0.69178    1.000
    N2987    N        0.53824    0.04096    0.67852    1.000
    Si2988   Si       0.67175    0.03303    0.74158    1.000
    N2989    N        0.67653    0.06511    0.71300    1.000
    N2990    N        0.62780    0.02113    0.74395    1.000
    Si2991   Si       0.54075    0.02552    0.78535    1.000
    Si2992   Si       0.60347    0.02022    0.83624    1.000
    N2993    N        0.51560    0.05613    0.80563    1.000
    Si2994   Si       0.52369    0.05909    0.84797    1.000
    Si2995   Si       0.60567    0.05111    0.76372    1.000
    N2996    N        0.56349    0.04762    0.75155    1.000
    N2997    N        0.51627    0.02106    0.86583    1.000
    N2998    N        0.61036    0.05220    0.80668    1.000
    N2999    N        0.67903    0.03806    0.78370    1.000
    Si3000   Si       0.72009    0.03433    0.86325    1.000
    Si3001   Si       0.71114    0.05885    0.80245    1.000
    N3002    N        0.71484    0.00863    0.82763    1.000
    N3003    N        0.56247    0.04679    0.92999    1.000
    N3004    N        0.53233    0.01549    0.98832    1.000
    Si3005   Si       0.58551    0.05593    0.89394    1.000
    N3006    N        0.59795    0.01836    0.88011    1.000
    Si3007   Si       0.54677    0.01224    0.94755    1.000
    N3008    N        0.69705    0.01494    0.89538    1.000
    Si3009   Si       0.64889    0.00743    0.99348    1.000
    N3010    N        0.71795    0.05905    0.95106    1.000
    N3011    N        0.65457    0.03137    0.95733    1.000
    Si3012   Si       0.69221    0.02694    0.93719    1.000
    N3013    N        0.53653    0.08723    0.10343    1.000
    Si3014   Si       0.52958    0.08801    0.05987    1.000
    N3015    N        0.55826    0.11161    0.03388    1.000
    Si3016   Si       0.59771    0.10173    0.01276    1.000
    Si3017   Si       0.52450    0.12002    0.00223    1.000
    N3018    N        0.49292    0.09417    0.03256    1.000
    N3019    N        0.62174    0.08070    0.04312    1.000
    Si3020   Si       0.63433    0.10778    0.07478    1.000
    N3021    N        0.70546    0.09280    0.01251    1.000
    N3022    N        0.64571    0.08608    0.11086    1.000
    Si3023   Si       0.73530    0.08523    0.10690    1.000
    N3024    N        0.73078    0.12316    0.08742    1.000
    Si3025   Si       0.52887    0.12235    0.23587    1.000
    N3026    N        0.57465    0.08252    0.20221    1.000
    N3027    N        0.52104    0.07649    0.24134    1.000
    N3028    N        0.64694    0.07391    0.18330    1.000
    Si3029   Si       0.64887    0.10372    0.15219    1.000
    N3030    N        0.71472    0.07421    0.19901    1.000
    Si3031   Si       0.72166    0.11126    0.17428    1.000
    Si3032   Si       0.60118    0.11605    0.34519    1.000
    N3033    N        0.60309    0.07345    0.34571    1.000
    Si3034   Si       0.53288    0.11080    0.36727    1.000
    N3035    N        0.61327    0.09354    0.26677    1.000
    N3036    N        0.66973    0.07868    0.31587    1.000
    N3037    N        0.72649    0.09221    0.26668    1.000
    Si3038   Si       0.67076    0.12068    0.32343    1.000
    Si3039   Si       0.54144    0.07628    0.43868    1.000
    N3040    N        0.53414    0.08600    0.48264    1.000
    N3041    N        0.54501    0.10643    0.40863    1.000
    Si3042   Si       0.60186    0.10758    0.42603    1.000
    Si3043   Si       0.56492    0.11729    0.48969    1.000
    N3044    N        0.58529    0.06871    0.43987    1.000
    Si3045   Si       0.63404    0.12246    0.48610    1.000
    N3046    N        0.63983    0.10309    0.44889    1.000
    N3047    N        0.69632    0.07510    0.47820    1.000
    N3048    N        0.72469    0.10485    0.41305    1.000
    N3049    N        0.56914    0.09027    0.56961    1.000
    N3050    N        0.60069    0.10666    0.51286    1.000
    Si3051   Si       0.55707    0.11418    0.60522    1.000
    Si3052   Si       0.61072    0.08862    0.55198    1.000
    Si3053   Si       0.50409    0.06835    0.50946    1.000
    N3054    N        0.53007    0.08189    0.62031    1.000
    N3055    N        0.63751    0.10607    0.57926    1.000
    N3056    N        0.69829    0.10460    0.60346    1.000
    N3057    N        0.72036    0.11218    0.54131    1.000
    Si3058   Si       0.70424    0.10976    0.50177    1.000
    Si3059   Si       0.67969    0.11715    0.56562    1.000
    N3060    N        0.66493    0.12333    0.51692    1.000
    Si3061   Si       0.63299    0.10752    0.62218    1.000
    N3062    N        0.56063    0.09907    0.70004    1.000
    Si3063   Si       0.52176    0.11250    0.71639    1.000
    N3064    N        0.59018    0.11076    0.63284    1.000
    N3065    N        0.49360    0.09508    0.68812    1.000
    Si3066   Si       0.58804    0.12324    0.67450    1.000
    Si3067   Si       0.51061    0.06692    0.65805    1.000
    Si3068   Si       0.71235    0.08899    0.70009    1.000
    N3069    N        0.63029    0.11764    0.69667    1.000
    N3070    N        0.65352    0.07800    0.64707    1.000
    Si3071   Si       0.64050    0.07407    0.68785    1.000
    Si3072   Si       0.69412    0.07147    0.63069    1.000
    N3073    N        0.72409    0.07163    0.66201    1.000
    N3074    N        0.56206    0.07581    0.86270    1.000
    Si3075   Si       0.56980    0.11631    0.84754    1.000
    N3076    N        0.50509    0.10401    0.75647    1.000
    N3077    N        0.49529    0.08942    0.86456    1.000
    N3078    N        0.58844    0.11945    0.80746    1.000
    N3079    N        0.62423    0.08968    0.76092    1.000
    Si3080   Si       0.62213    0.09325    0.80361    1.000
    N3081    N        0.65474    0.11513    0.82456    1.000
    N3082    N        0.71616    0.10119    0.79619    1.000
    Si3083   Si       0.69770    0.11216    0.83530    1.000
    N3084    N        0.70243    0.06894    0.84497    1.000
    N3085    N        0.60099    0.08204    0.97558    1.000
    N3086    N        0.56558    0.11191    0.92376    1.000
    N3087    N        0.53059    0.08466    0.98049    1.000
    Si3088   Si       0.56361    0.08207    0.95396    1.000
    Si3089   Si       0.60433    0.12134    0.90994    1.000
    N3090    N        0.66381    0.10513    0.95962    1.000
    N3091    N        0.62026    0.08082    0.91067    1.000
    Si3092   Si       0.63656    0.07278    0.95135    1.000
    Si3093   Si       0.70419    0.09616    0.96901    1.000
    N3094    N        0.52531    0.14447    0.07733    1.000
    Si3095   Si       0.56600    0.14556    0.05959    1.000
    N3096    N        0.59921    0.13281    0.08357    1.000
    N3097    N        0.49482    0.17920    0.03123    1.000
    N3098    N        0.61331    0.14156    0.00962    1.000
    Si3099   Si       0.52514    0.12483    0.12012    1.000
    Si3100   Si       0.69608    0.14798    0.07756    1.000
    N3101    N        0.67675    0.16916    0.10899    1.000
    Si3102   Si       0.64799    0.16143    0.02730    1.000
    N3103    N        0.71899    0.16518    0.04335    1.000
    Si3104   Si       0.72606    0.13180    0.01697    1.000
    N3105    N        0.66300    0.13227    0.05601    1.000
    Si3106   Si       0.59583    0.14896    0.12372    1.000
    N3107    N        0.60270    0.14571    0.22035    1.000
    N3108    N        0.55594    0.15017    0.13516    1.000
    Si3109   Si       0.50200    0.15190    0.18725    1.000
    N3110    N        0.49115    0.13245    0.14762    1.000
    N3111    N        0.54165    0.13566    0.19707    1.000
    Si3112   Si       0.58264    0.12445    0.18826    1.000
    N3113    N        0.61290    0.12575    0.15568    1.000
    Si3114   Si       0.68295    0.16889    0.15213    1.000
    Si3115   Si       0.72928    0.18434    0.20566    1.000
    N3116    N        0.68460    0.12662    0.15971    1.000
    Si3117   Si       0.54276    0.15107    0.30476    1.000
    Si3118   Si       0.59799    0.13428    0.26246    1.000
    N3119    N        0.49829    0.13549    0.36356    1.000
    N3120    N        0.49904    0.14967    0.29937    1.000
    N3121    N        0.55542    0.13412    0.26813    1.000
    N3122    N        0.60578    0.17719    0.27321    1.000
    N3123    N        0.56046    0.12748    0.33789    1.000
    Si3124   Si       0.73118    0.13373    0.28550    1.000
    N3125    N        0.62923    0.13775    0.32306    1.000
    N3126    N        0.68683    0.14079    0.28890    1.000
    N3127    N        0.68862    0.12830    0.36203    1.000
    Si3128   Si       0.62767    0.17917    0.31082    1.000
    Si3129   Si       0.69116    0.18251    0.27078    1.000
    N3130    N        0.73409    0.17966    0.28202    1.000
    N3131    N        0.60840    0.12780    0.38772    1.000
    N3132    N        0.58539    0.13810    0.45565    1.000
    Si3133   Si       0.60742    0.17663    0.45434    1.000
    Si3134   Si       0.60672    0.17164    0.38574    1.000
    Si3135   Si       0.71550    0.14246    0.39124    1.000
    N3136    N        0.72284    0.13722    0.47543    1.000
    N3137    N        0.70328    0.17089    0.42339    1.000
    N3138    N        0.64006    0.16447    0.47995    1.000
    Si3139   Si       0.71279    0.17915    0.46507    1.000
    N3140    N        0.53558    0.15020    0.59013    1.000
    Si3141   Si       0.53100    0.16604    0.54866    1.000
    N3142    N        0.53862    0.14386    0.51355    1.000
    Si3143   Si       0.49805    0.14152    0.50212    1.000
    Si3144   Si       0.51612    0.18164    0.61369    1.000
    N3145    N        0.48742    0.16551    0.53791    1.000
    N3146    N        0.67046    0.16265    0.56644    1.000
    Si3147   Si       0.65671    0.16931    0.51897    1.000
    Si3148   Si       0.64977    0.17411    0.60437    1.000
    N3149    N        0.59387    0.15261    0.74261    1.000
    N3150    N        0.52640    0.15553    0.70626    1.000
    Si3151   Si       0.56658    0.17384    0.71307    1.000
    N3152    N        0.58302    0.16629    0.67241    1.000
    Si3153   Si       0.49237    0.17038    0.68139    1.000
    N3154    N        0.49218    0.15529    0.64064    1.000
    N3155    N        0.64804    0.14563    0.63656    1.000
    Si3156   Si       0.65991    0.14572    0.67775    1.000
    Si3157   Si       0.62791    0.12652    0.73970    1.000
    N3158    N        0.69664    0.12743    0.68873    1.000
    N3159    N        0.53310    0.13981    0.84605    1.000
    Si3160   Si       0.58689    0.15507    0.78414    1.000
    N3161    N        0.60218    0.13591    0.86947    1.000
    Si3162   Si       0.53222    0.17986    0.82689    1.000
    N3163    N        0.55039    0.17924    0.78543    1.000
    Si3164   Si       0.62927    0.14898    0.83921    1.000
    N3165    N        0.72340    0.14185    0.85512    1.000
    N3166    N        0.66097    0.16867    0.85914    1.000
    Si3167   Si       0.70211    0.17804    0.84591    1.000
    N3168    N        0.61935    0.17661    0.80684    1.000
    N3169    N        0.65966    0.15466    0.75184    1.000
    Si3170   Si       0.65918    0.18178    0.78679    1.000
    N3171    N        0.70202    0.18191    0.80271    1.000
    Si3172   Si       0.50278    0.13295    0.87447    1.000
    N3173    N        0.50627    0.14053    0.91683    1.000
    N3174    N        0.54928    0.15028    0.97715    1.000
    Si3175   Si       0.54514    0.14984    0.93494    1.000
    N3176    N        0.56205    0.18561    0.91740    1.000
    Si3177   Si       0.58286    0.17032    0.99662    1.000
    N3178    N        0.72661    0.13324    0.97169    1.000
    N3179    N        0.68336    0.16730    0.92632    1.000
    N3180    N        0.61780    0.15215    0.93693    1.000
    Si3181   Si       0.65665    0.14704    0.95457    1.000
    Si3182   Si       0.71725    0.17499    0.95077    1.000
    N3183    N        0.66862    0.17511    0.98910    1.000
    Si3184   Si       0.53080    0.20438    0.03476    1.000
    Si3185   Si       0.51049    0.22510    0.10851    1.000
    N3186    N        0.52320    0.23238    0.06808    1.000
    N3187    N        0.54236    0.23848    0.00842    1.000
    N3188    N        0.56683    0.18055    0.03584    1.000
    N3189    N        0.61148    0.18796    0.12046    1.000
    N3190    N        0.71639    0.22245    0.09295    1.000
    N3191    N        0.63903    0.19345    0.05282    1.000
    Si3192   Si       0.64512    0.19520    0.09526    1.000
    N3193    N        0.68078    0.23503    0.02535    1.000
    Si3194   Si       0.64310    0.23723    0.04668    1.000
    N3195    N        0.65128    0.23982    0.09185    1.000
    Si3196   Si       0.73629    0.20315    0.06063    1.000
    N3197    N        0.54626    0.22067    0.13032    1.000
    Si3198   Si       0.52907    0.22619    0.21187    1.000
    N3199    N        0.58171    0.19393    0.18226    1.000
    Si3200   Si       0.59509    0.18879    0.22767    1.000
    N3201    N        0.51304    0.19364    0.18445    1.000
    N3202    N        0.55436    0.20602    0.24077    1.000
    Si3203   Si       0.54867    0.18573    0.15797    1.000
    N3204    N        0.62416    0.22513    0.22741    1.000
    N3205    N        0.71876    0.19028    0.16270    1.000
    Si3206   Si       0.73442    0.21786    0.13297    1.000
    N3207    N        0.65204    0.19240    0.17334    1.000
    N3208    N        0.69362    0.19626    0.22875    1.000
    Si3209   Si       0.66381    0.21812    0.20759    1.000
    Si3210   Si       0.61574    0.20773    0.15875    1.000
    Si3211   Si       0.55759    0.21968    0.28137    1.000
    Si3212   Si       0.55834    0.21254    0.35247    1.000
    N3213    N        0.54943    0.19239    0.31494    1.000
    N3214    N        0.51619    0.22495    0.36618    1.000
    Si3215   Si       0.49581    0.23715    0.32878    1.000
    N3216    N        0.61651    0.19480    0.34922    1.000
    N3217    N        0.66501    0.20467    0.29854    1.000
    Si3218   Si       0.63756    0.23213    0.36000    1.000
    Si3219   Si       0.55228    0.21240    0.42343    1.000
    N3220    N        0.57961    0.20989    0.45727    1.000
    N3221    N        0.51026    0.21193    0.43043    1.000
    N3222    N        0.56786    0.19094    0.39031    1.000
    Si3223   Si       0.67095    0.20043    0.41514    1.000
    N3224    N        0.67710    0.23385    0.44317    1.000
    N3225    N        0.67633    0.21730    0.37593    1.000
    N3226    N        0.63106    0.18457    0.41747    1.000
    N3227    N        0.55246    0.20396    0.54791    1.000
    Si3228   Si       0.59662    0.20973    0.55757    1.000
    Si3229   Si       0.53147    0.23702    0.53186    1.000
    N3230    N        0.49014    0.20913    0.59226    1.000
    N3231    N        0.60551    0.18767    0.59587    1.000
    Si3232   Si       0.69970    0.23048    0.60034    1.000
    Si3233   Si       0.71811    0.20884    0.53535    1.000
    N3234    N        0.62757    0.20006    0.52915    1.000
    N3235    N        0.68643    0.22904    0.55869    1.000
    N3236    N        0.69174    0.19709    0.50059    1.000
    Si3237   Si       0.64960    0.23843    0.53460    1.000
    N3238    N        0.56499    0.21472    0.72528    1.000
    N3239    N        0.54407    0.20737    0.63628    1.000
    Si3240   Si       0.58536    0.19536    0.63919    1.000
    Si3241   Si       0.52416    0.23974    0.66253    1.000
    N3242    N        0.49106    0.21330    0.67611    1.000
    N3243    N        0.61248    0.22536    0.65040    1.000
    Si3244   Si       0.67601    0.18849    0.72771    1.000
    N3245    N        0.73736    0.22699    0.66508    1.000
    N3246    N        0.67201    0.20851    0.62366    1.000
    N3247    N        0.71812    0.19757    0.73235    1.000
    Si3248   Si       0.65276    0.22020    0.66044    1.000
    N3249    N        0.65778    0.18683    0.69025    1.000
    Si3250   Si       0.59715    0.21175    0.81916    1.000
    N3251    N        0.56347    0.20294    0.84570    1.000
    Si3252   Si       0.55042    0.21924    0.76656    1.000
    N3253    N        0.49405    0.19915    0.82547    1.000
    N3254    N        0.58953    0.23427    0.78216    1.000
    N3255    N        0.51372    0.24145    0.76840    1.000
    Si3256   Si       0.73689    0.18826    0.77223    1.000
    N3257    N        0.65651    0.21589    0.76018    1.000
    Si3258   Si       0.49496    0.23234    0.93282    1.000
    N3259    N        0.50906    0.22020    0.89185    1.000
    Si3260   Si       0.60179    0.19299    0.93472    1.000
    N3261    N        0.59396    0.20624    0.97652    1.000
    Si3262   Si       0.55130    0.21278    0.88566    1.000
    N3263    N        0.49602    0.20067    0.96138    1.000
    N3264    N        0.57519    0.24772    0.90103    1.000
    N3265    N        0.62932    0.20998    0.90578    1.000
    Si3266   Si       0.68049    0.21648    0.98665    1.000
    Si3267   Si       0.66677    0.19133    0.89544    1.000
    N3268    N        0.72013    0.21244    0.96935    1.000
    N3269    N        0.70221    0.21025    0.87454    1.000
    Si3270   Si       0.72876    0.24351    0.88017    1.000
    Si3271   Si       0.52635    0.26405    0.03946    1.000
    Si3272   Si       0.59578    0.29251    0.04882    1.000
    N3273    N        0.60529    0.29030    0.09133    1.000
    N3274    N        0.49579    0.29393    0.02785    1.000
    N3275    N        0.55240    0.29602    0.04823    1.000
    N3276    N        0.61006    0.25836    0.02639    1.000
    Si3277   Si       0.71444    0.26290    0.03030    1.000
    N3278    N        0.70325    0.28327    0.06670    1.000
    Si3279   Si       0.69380    0.25935    0.10098    1.000
    Si3280   Si       0.62964    0.26813    0.11946    1.000
    N3281    N        0.55116    0.29282    0.13494    1.000
    N3282    N        0.55121    0.25856    0.19288    1.000
    Si3283   Si       0.56442    0.25482    0.15114    1.000
    N3284    N        0.60764    0.24916    0.15140    1.000
    Si3285   Si       0.50805    0.29459    0.13770    1.000
    Si3286   Si       0.54365    0.30094    0.19983    1.000
    N3287    N        0.49620    0.24812    0.23190    1.000
    N3288    N        0.48877    0.25541    0.13159    1.000
    Si3289   Si       0.69322    0.27807    0.23449    1.000
    N3290    N        0.72094    0.26033    0.14040    1.000
    N3291    N        0.73638    0.27835    0.22516    1.000
    N3292    N        0.67896    0.25866    0.19627    1.000
    Si3293   Si       0.69355    0.28376    0.16474    1.000
    N3294    N        0.66708    0.28947    0.12990    1.000
    Si3295   Si       0.59678    0.26975    0.31822    1.000
    Si3296   Si       0.50878    0.27839    0.26502    1.000
    N3297    N        0.58038    0.25051    0.35313    1.000
    N3298    N        0.52337    0.24816    0.29526    1.000
    N3299    N        0.59031    0.25034    0.28044    1.000
    N3300    N        0.61079    0.30255    0.24659    1.000
    N3301    N        0.54368    0.29939    0.24637    1.000
    N3302    N        0.66661    0.26188    0.26405    1.000
    N3303    N        0.63980    0.26159    0.32826    1.000
    N3304    N        0.70811    0.25658    0.32844    1.000
    Si3305   Si       0.62334    0.25984    0.25281    1.000
    Si3306   Si       0.70842    0.24526    0.36854    1.000
    Si3307   Si       0.67339    0.24877    0.30324    1.000
    Si3308   Si       0.59161    0.27088    0.38993    1.000
    N3309    N        0.56093    0.25787    0.41935    1.000
    Si3310   Si       0.57156    0.25259    0.46505    1.000
    Si3311   Si       0.51814    0.29549    0.48642    1.000
    N3312    N        0.60467    0.27677    0.47347    1.000
    Si3313   Si       0.54145    0.29706    0.41083    1.000
    N3314    N        0.54075    0.26000    0.49571    1.000
    N3315    N        0.63233    0.26012    0.39703    1.000
    N3316    N        0.70342    0.27664    0.39794    1.000
    N3317    N        0.73015    0.27017    0.45942    1.000
    Si3318   Si       0.66801    0.27109    0.42079    1.000
    Si3319   Si       0.64252    0.29235    0.48488    1.000
    Si3320   Si       0.69963    0.24159    0.48177    1.000
    N3321    N        0.52905    0.26632    0.56368    1.000
    N3322    N        0.58104    0.28320    0.61284    1.000
    Si3323   Si       0.60108    0.28928    0.57482    1.000
    Si3324   Si       0.49722    0.25228    0.58933    1.000
    N3325    N        0.61304    0.25182    0.55790    1.000
    Si3326   Si       0.73177    0.28593    0.53548    1.000
    N3327    N        0.66730    0.26141    0.50412    1.000
    N3328    N        0.73638    0.24560    0.51758    1.000
    N3329    N        0.70258    0.26828    0.62025    1.000
    Si3330   Si       0.49756    0.27374    0.73574    1.000
    Si3331   Si       0.57406    0.25301    0.71597    1.000
    N3332    N        0.50204    0.27638    0.69007    1.000
    N3333    N        0.54749    0.28524    0.73416    1.000
    Si3334   Si       0.59696    0.26726    0.65065    1.000
    N3335    N        0.56083    0.26380    0.67628    1.000
    N3336    N        0.51158    0.26864    0.62807    1.000
    N3337    N        0.61647    0.25996    0.71947    1.000
    N3338    N        0.62896    0.29743    0.66231    1.000
    Si3339   Si       0.64808    0.28032    0.69751    1.000
    N3340    N        0.67591    0.25166    0.68019    1.000
    Si3341   Si       0.71244    0.26195    0.66239    1.000
    N3342    N        0.72409    0.30176    0.67427    1.000
    Si3343   Si       0.61293    0.28118    0.81864    1.000
    N3344    N        0.49366    0.26070    0.83807    1.000
    N3345    N        0.64029    0.27887    0.78353    1.000
    Si3346   Si       0.62617    0.24613    0.75920    1.000
    N3347    N        0.73497    0.25774    0.83961    1.000
    N3348    N        0.61976    0.24486    0.84251    1.000
    N3349    N        0.51580    0.26855    0.94078    1.000
    Si3350   Si       0.55616    0.27267    0.92915    1.000
    N3351    N        0.58101    0.27849    0.96598    1.000
    Si3352   Si       0.58369    0.24612    0.99412    1.000
    N3353    N        0.66121    0.24291    0.96015    1.000
    N3354    N        0.63751    0.27723    0.90469    1.000
    N3355    N        0.71458    0.27825    0.99097    1.000
    Si3356   Si       0.61605    0.24600    0.88664    1.000
    Si3357   Si       0.73216    0.25291    0.95883    1.000
    N3358    N        0.71187    0.26048    0.91940    1.000
    Si3359   Si       0.67162    0.27452    0.93181    1.000
    Si3360   Si       0.52858    0.32429    0.02487    1.000
    N3361    N        0.55660    0.35177    0.10293    1.000
    Si3362   Si       0.58021    0.31681    0.11474    1.000
    Si3363   Si       0.51523    0.35655    0.09030    1.000
    N3364    N        0.60967    0.33162    0.03601    1.000
    N3365    N        0.48958    0.32357    0.10836    1.000
    N3366    N        0.51692    0.35874    0.04708    1.000
    Si3367   Si       0.59281    0.35723    0.00570    1.000
    N3368    N        0.66357    0.33910    0.08211    1.000
    Si3369   Si       0.69713    0.32621    0.05823    1.000
    N3370    N        0.68181    0.33703    0.01825    1.000
    N3371    N        0.73707    0.34585    0.06054    1.000
    Si3372   Si       0.65228    0.33133    0.12521    1.000
    Si3373   Si       0.63539    0.36069    0.05786    1.000
    N3374    N        0.56363    0.33931    0.19701    1.000
    N3375    N        0.49440    0.35281    0.22555    1.000
    N3376    N        0.50559    0.30659    0.17915    1.000
    Si3377   Si       0.59919    0.35556    0.17641    1.000
    N3378    N        0.61113    0.33001    0.14424    1.000
    N3379    N        0.68458    0.31971    0.23831    1.000
    N3380    N        0.71714    0.31910    0.17331    1.000
    N3381    N        0.67349    0.36226    0.14595    1.000
    Si3382   Si       0.71500    0.35913    0.16054    1.000
    Si3383   Si       0.64188    0.33533    0.24094    1.000
    Si3384   Si       0.58189    0.33350    0.35063    1.000
    Si3385   Si       0.57570    0.31694    0.26986    1.000
    N3386    N        0.58202    0.31000    0.31306    1.000
    N3387    N        0.54562    0.35527    0.34391    1.000
    N3388    N        0.61474    0.35985    0.35734    1.000
    Si3389   Si       0.72707    0.35058    0.32166    1.000
    Si3390   Si       0.72150    0.33756    0.25316    1.000
    N3391    N        0.73051    0.31812    0.29179    1.000
    N3392    N        0.68428    0.36044    0.32555    1.000
    N3393    N        0.73557    0.33212    0.35935    1.000
    N3394    N        0.64249    0.36204    0.27527    1.000
    N3395    N        0.57465    0.31047    0.38659    1.000
    N3396    N        0.50966    0.31431    0.38556    1.000
    Si3397   Si       0.54397    0.35420    0.45895    1.000
    Si3398   Si       0.52603    0.35514    0.38294    1.000
    N3399    N        0.53424    0.31239    0.45142    1.000
    N3400    N        0.57910    0.35596    0.48635    1.000
    Si3401   Si       0.71325    0.32067    0.39528    1.000
    N3402    N        0.65850    0.30756    0.44745    1.000
    N3403    N        0.72511    0.33569    0.43491    1.000
    N3404    N        0.67445    0.34014    0.39270    1.000
    Si3405   Si       0.66406    0.34994    0.43195    1.000
    N3406    N        0.52088    0.32587    0.58912    1.000
    N3407    N        0.51707    0.32537    0.51828    1.000
    Si3408   Si       0.59850    0.34050    0.52288    1.000
    N3409    N        0.57656    0.31384    0.54723    1.000
    Si3410   Si       0.53428    0.30868    0.55284    1.000
    Si3411   Si       0.54088    0.30030    0.61821    1.000
    N3412    N        0.73524    0.31950    0.50708    1.000
    Si3413   Si       0.66216    0.32557    0.55188    1.000
    N3414    N        0.63602    0.32013    0.51582    1.000
    N3415    N        0.63642    0.31291    0.58804    1.000
    Si3416   Si       0.70380    0.30800    0.60347    1.000
    N3417    N        0.70011    0.30537    0.55978    1.000
    N3418    N        0.54582    0.32482    0.65385    1.000
    Si3419   Si       0.51513    0.35368    0.66541    1.000
    N3420    N        0.52159    0.33907    0.70489    1.000
    N3421    N        0.58841    0.34070    0.74140    1.000
    Si3422   Si       0.53909    0.30089    0.69222    1.000
    Si3423   Si       0.50580    0.34868    0.74279    1.000
    Si3424   Si       0.64090    0.32518    0.62913    1.000
    Si3425   Si       0.70759    0.32150    0.71051    1.000
    Si3426   Si       0.72774    0.34331    0.65326    1.000
    N3427    N        0.68415    0.33485    0.63167    1.000
    N3428    N        0.67036    0.30596    0.72558    1.000
    N3429    N        0.73764    0.32611    0.74084    1.000
    N3430    N        0.54457    0.33828    0.85209    1.000
    N3431    N        0.53000    0.34269    0.78033    1.000
    Si3432   Si       0.58252    0.33467    0.83011    1.000
    Si3433   Si       0.56041    0.31627    0.76357    1.000
    Si3434   Si       0.51801    0.35408    0.82052    1.000
    N3435    N        0.57996    0.30325    0.79914    1.000
    N3436    N        0.61477    0.31255    0.84874    1.000
    Si3437   Si       0.66647    0.31077    0.76964    1.000
    N3438    N        0.70080    0.31439    0.79688    1.000
    Si3439   Si       0.69897    0.32783    0.83712    1.000
    N3440    N        0.64722    0.35128    0.76975    1.000
    N3441    N        0.73663    0.33788    0.85539    1.000
    N3442    N        0.68260    0.31356    0.87474    1.000
    N3443    N        0.56324    0.31498    0.91742    1.000
    Si3444   Si       0.57755    0.32193    0.95831    1.000
    Si3445   Si       0.53136    0.33041    0.89313    1.000
    N3446    N        0.49545    0.30889    0.89160    1.000
    N3447    N        0.55476    0.33682    0.99350    1.000
    N3448    N        0.61079    0.34772    0.96584    1.000
    Si3449   Si       0.71753    0.33457    0.89514    1.000
    N3450    N        0.63358    0.35233    0.90450    1.000
    N3451    N        0.73636    0.34213    0.98858    1.000
    N3452    N        0.67268    0.31419    0.94944    1.000
    Si3453   Si       0.64772    0.34851    0.94549    1.000
    Si3454   Si       0.69992    0.31917    0.98376    1.000
    Si3455   Si       0.63956    0.31573    0.88313    1.000
    Si3456   Si       0.53016    0.39041    0.01846    1.000
    N3457    N        0.57440    0.39320    0.02167    1.000
    Si3458   Si       0.57984    0.38693    0.11260    1.000
    N3459    N        0.49467    0.39228    0.10512    1.000
    Si3460   Si       0.60895    0.41916    0.02274    1.000
    N3461    N        0.55822    0.42185    0.09643    1.000
    N3462    N        0.61604    0.38298    0.09026    1.000
    N3463    N        0.64022    0.38987    0.02508    1.000
    N3464    N        0.71651    0.40098    0.01883    1.000
    Si3465   Si       0.67877    0.38115    0.00753    1.000
    N3466    N        0.54248    0.40418    0.22265    1.000
    N3467    N        0.58531    0.39239    0.15464    1.000
    Si3468   Si       0.53728    0.36091    0.22465    1.000
    N3469    N        0.66705    0.42040    0.24379    1.000
    N3470    N        0.62399    0.36234    0.21150    1.000
    Si3471   Si       0.67579    0.40302    0.16125    1.000
    Si3472   Si       0.63065    0.40695    0.22268    1.000
    N3473    N        0.70631    0.38957    0.19210    1.000
    Si3474   Si       0.70659    0.40646    0.23241    1.000
    N3475    N        0.70737    0.41513    0.13161    1.000
    Si3476   Si       0.53476    0.36861    0.30416    1.000
    Si3477   Si       0.56452    0.40340    0.26007    1.000
    N3478    N        0.54170    0.41257    0.29524    1.000
    N3479    N        0.49216    0.36449    0.30144    1.000
    N3480    N        0.55706    0.35790    0.26540    1.000
    N3481    N        0.71066    0.37867    0.26593    1.000
    Si3482   Si       0.67429    0.38491    0.29027    1.000
    Si3483   Si       0.65881    0.36313    0.36006    1.000
    Si3484   Si       0.49253    0.41630    0.46388    1.000
    N3485    N        0.55119    0.36939    0.41835    1.000
    N3486    N        0.51268    0.37834    0.47661    1.000
    Si3487   Si       0.60615    0.38487    0.46565    1.000
    Si3488   Si       0.55665    0.41372    0.42252    1.000
    Si3489   Si       0.61366    0.39187    0.39003    1.000
    N3490    N        0.68707    0.38524    0.45140    1.000
    Si3491   Si       0.72955    0.37789    0.44380    1.000
    N3492    N        0.62527    0.37270    0.42707    1.000
    N3493    N        0.65454    0.40340    0.37483    1.000
    Si3494   Si       0.67153    0.41340    0.48097    1.000
    N3495    N        0.63519    0.39478    0.49707    1.000
    N3496    N        0.56094    0.40116    0.60490    1.000
    N3497    N        0.51817    0.39480    0.54385    1.000
    N3498    N        0.59984    0.37287    0.55421    1.000
    Si3499   Si       0.59716    0.38135    0.59574    1.000
    Si3500   Si       0.52404    0.41287    0.58502    1.000
    Si3501   Si       0.50256    0.36524    0.51609    1.000
    N3502    N        0.48892    0.39040    0.60056    1.000
    N3503    N        0.73526    0.37676    0.55770    1.000
    Si3504   Si       0.63446    0.39419    0.53930    1.000
    Si3505   Si       0.69904    0.40025    0.55429    1.000
    N3506    N        0.66886    0.36828    0.55204    1.000
    N3507    N        0.69867    0.42074    0.51466    1.000
    N3508    N        0.50514    0.39533    0.66709    1.000
    N3509    N        0.59093    0.40824    0.67129    1.000
    N3510    N        0.50389    0.39123    0.74029    1.000
    Si3511   Si       0.51253    0.41462    0.70551    1.000
    N3512    N        0.61131    0.41225    0.74024    1.000
    N3513    N        0.61772    0.36091    0.62841    1.000
    Si3514   Si       0.62041    0.36785    0.73581    1.000
    N3515    N        0.66811    0.41084    0.65693    1.000
    Si3516   Si       0.67585    0.39301    0.69481    1.000
    N3517    N        0.73189    0.38608    0.63522    1.000
    N3518    N        0.63987    0.37105    0.69652    1.000
    Si3519   Si       0.62858    0.39240    0.65480    1.000
    N3520    N        0.67951    0.41854    0.72820    1.000
    N3521    N        0.70503    0.36078    0.69374    1.000
    N3522    N        0.52894    0.39698    0.82399    1.000
    Si3523   Si       0.57269    0.40207    0.83391    1.000
    N3524    N        0.60230    0.37219    0.82004    1.000
    Si3525   Si       0.64300    0.37690    0.80647    1.000
    Si3526   Si       0.68442    0.39445    0.86283    1.000
    N3527    N        0.72294    0.41046    0.77521    1.000
    N3528    N        0.67512    0.36314    0.83291    1.000
    N3529    N        0.65778    0.41525    0.79485    1.000
    N3530    N        0.64769    0.41174    0.87121    1.000
    N3531    N        0.71029    0.42385    0.84579    1.000
    Si3532   Si       0.49137    0.36863    0.94400    1.000
    N3533    N        0.57623    0.39964    0.87936    1.000
    N3534    N        0.52214    0.36675    0.91429    1.000
    Si3535   Si       0.53923    0.40426    0.90316    1.000
    N3536    N        0.50333    0.38801    0.98230    1.000
    Si3537   Si       0.61575    0.38972    0.89210    1.000
    Si3538   Si       0.70355    0.39650    0.93570    1.000
    N3539    N        0.67556    0.37848    0.96353    1.000
    N3540    N        0.70149    0.37560    0.89802    1.000
    N3541    N        0.61777    0.41871    0.92634    1.000
    N3542    N        0.51079    0.42993    0.02671    1.000
    Si3543   Si       0.58862    0.45021    0.08492    1.000
    Si3544   Si       0.51826    0.42557    0.11332    1.000
    Si3545   Si       0.52950    0.46959    0.03435    1.000
    N3546    N        0.49576    0.46130    0.10594    1.000
    N3547    N        0.62064    0.44477    0.05636    1.000
    N3548    N        0.69543    0.44995    0.06609    1.000
    Si3549   Si       0.70841    0.45129    0.10944    1.000
    Si3550   Si       0.72328    0.44127    0.03391    1.000
    Si3551   Si       0.65604    0.46892    0.05820    1.000
    N3552    N        0.72499    0.47578    0.00723    1.000
    N3553    N        0.61234    0.45069    0.12248    1.000
    Si3554   Si       0.53736    0.43847    0.19599    1.000
    N3555    N        0.51461    0.47284    0.21601    1.000
    N3556    N        0.51639    0.43324    0.15759    1.000
    Si3557   Si       0.60364    0.43055    0.16000    1.000
    N3558    N        0.57697    0.45466    0.18756    1.000
    N3559    N        0.64009    0.42027    0.18030    1.000
    Si3560   Si       0.73304    0.47274    0.23047    1.000
    Si3561   Si       0.51372    0.44139    0.31445    1.000
    N3562    N        0.52015    0.43414    0.35837    1.000
    Si3563   Si       0.60422    0.46680    0.25772    1.000
    Si3564   Si       0.55914    0.45491    0.36702    1.000
    N3565    N        0.60214    0.42350    0.25189    1.000
    N3566    N        0.57987    0.47511    0.33470    1.000
    Si3567   Si       0.66563    0.44910    0.27616    1.000
    N3568    N        0.71364    0.44329    0.35851    1.000
    Si3569   Si       0.67097    0.43738    0.35107    1.000
    N3570    N        0.64754    0.47240    0.35969    1.000
    N3571    N        0.69631    0.47397    0.26238    1.000
    N3572    N        0.66765    0.42260    0.30997    1.000
    N3573    N        0.63320    0.47747    0.28850    1.000
    N3574    N        0.50259    0.44907    0.49042    1.000
    N3575    N        0.51345    0.42580    0.42793    1.000
    N3576    N        0.58608    0.42132    0.45475    1.000
    Si3577   Si       0.49240    0.41992    0.38978    1.000
    N3578    N        0.58120    0.42009    0.38576    1.000
    Si3579   Si       0.61336    0.45610    0.46236    1.000
    N3580    N        0.65773    0.45098    0.46675    1.000
    N3581    N        0.72983    0.44907    0.45820    1.000
    Si3582   Si       0.73777    0.42565    0.49315    1.000
    Si3583   Si       0.69324    0.47617    0.45683    1.000
    N3584    N        0.53399    0.45114    0.56309    1.000
    Si3585   Si       0.50771    0.43637    0.53122    1.000
    N3586    N        0.59961    0.47185    0.50021    1.000
    Si3587   Si       0.61790    0.47131    0.53801    1.000
    N3588    N        0.63773    0.43582    0.55196    1.000
    Si3589   Si       0.65173    0.44329    0.59410    1.000
    N3590    N        0.61779    0.42319    0.61345    1.000
    N3591    N        0.68836    0.41812    0.59248    1.000
    N3592    N        0.49886    0.45021    0.62539    1.000
    N3593    N        0.54488    0.44468    0.71187    1.000
    Si3594   Si       0.57946    0.42766    0.63451    1.000
    N3595    N        0.56356    0.46628    0.64338    1.000
    Si3596   Si       0.58778    0.43211    0.70796    1.000
    N3597    N        0.60645    0.46811    0.69270    1.000
    Si3598   Si       0.51557    0.47934    0.71106    1.000
    N3599    N        0.73435    0.42662    0.69301    1.000
    Si3600   Si       0.72123    0.43007    0.73481    1.000
    N3601    N        0.72322    0.45845    0.63581    1.000
    Si3602   Si       0.70396    0.41921    0.63554    1.000
    N3603    N        0.58102    0.44084    0.81963    1.000
    N3604    N        0.51715    0.46653    0.82768    1.000
    Si3605   Si       0.49700    0.42730    0.82466    1.000
    Si3606   Si       0.55932    0.47772    0.82845    1.000
    Si3607   Si       0.69856    0.43078    0.80505    1.000
    Si3608   Si       0.64727    0.43028    0.75663    1.000
    N3609    N        0.69493    0.47469    0.80312    1.000
    N3610    N        0.64805    0.47235    0.75003    1.000
    Si3611   Si       0.58775    0.43924    0.94786    1.000
    N3612    N        0.50562    0.43371    0.89521    1.000
    Si3613   Si       0.51127    0.45353    0.93307    1.000
    N3614    N        0.54807    0.42902    0.93866    1.000
    N3615    N        0.60299    0.44507    0.98861    1.000
    Si3616   Si       0.64833    0.44220    0.90646    1.000
    N3617    N        0.68612    0.43504    0.92287    1.000
    Si3618   Si       0.71078    0.46923    0.91307    1.000
    Si3619   Si       0.55888    0.51988    0.06676    1.000
    N3620    N        0.52744    0.52455    0.09873    1.000
    N3621    N        0.49966    0.49811    0.04765    1.000
    N3622    N        0.56320    0.47664    0.05964    1.000
    N3623    N        0.60581    0.51928    0.99711    1.000
    Si3624   Si       0.49121    0.50052    0.09024    1.000
    Si3625   Si       0.64341    0.52664    0.01352    1.000
    N3626    N        0.64988    0.50058    0.08750    1.000
    N3627    N        0.65864    0.48595    0.01679    1.000
    N3628    N        0.56619    0.51980    0.20276    1.000
    Si3629   Si       0.59985    0.49232    0.19176    1.000
    Si3630   Si       0.53909    0.50664    0.23286    1.000
    N3631    N        0.50812    0.53332    0.24542    1.000
    Si3632   Si       0.64474    0.48114    0.12701    1.000
    Si3633   Si       0.70687    0.50360    0.16286    1.000
    N3634    N        0.62472    0.50310    0.15862    1.000
    N3635    N        0.70234    0.49005    0.20277    1.000
    N3636    N        0.62809    0.48397    0.22205    1.000
    Si3637   Si       0.66919    0.49662    0.22834    1.000
    N3638    N        0.68687    0.47601    0.13710    1.000
    Si3639   Si       0.55688    0.49721    0.30492    1.000
    N3640    N        0.56717    0.48823    0.26322    1.000
    N3641    N        0.51816    0.48323    0.31012    1.000
    Si3642   Si       0.65695    0.51649    0.29141    1.000
    Si3643   Si       0.62099    0.48798    0.32965    1.000
    Si3644   Si       0.72944    0.49127    0.29208    1.000
    N3645    N        0.69556    0.51814    0.30601    1.000
    N3646    N        0.62747    0.53170    0.32298    1.000
    N3647    N        0.65820    0.53347    0.25122    1.000
    N3648    N        0.54767    0.49799    0.46238    1.000
    Si3649   Si       0.57030    0.49988    0.42483    1.000
    Si3650   Si       0.50395    0.50451    0.39598    1.000
    Si3651   Si       0.50561    0.48731    0.46788    1.000
    N3652    N        0.54364    0.48695    0.39352    1.000
    N3653    N        0.60918    0.48032    0.42646    1.000
    N3654    N        0.70171    0.51559    0.47217    1.000
    N3655    N        0.71091    0.52260    0.37321    1.000
    N3656    N        0.68455    0.47888    0.41430    1.000
    Si3657   Si       0.64299    0.48695    0.39865    1.000
    N3658    N        0.64040    0.53266    0.39172    1.000
    Si3659   Si       0.71671    0.47978    0.38429    1.000
    N3660    N        0.54496    0.51031    0.53050    1.000
    N3661    N        0.53395    0.50998    0.60132    1.000
    Si3662   Si       0.55258    0.49064    0.56766    1.000
    N3663    N        0.59508    0.48915    0.57017    1.000
    Si3664   Si       0.57288    0.50714    0.49682    1.000
    Si3665   Si       0.51446    0.53683    0.51890    1.000
    Si3666   Si       0.62492    0.51153    0.59306    1.000
    N3667    N        0.64998    0.50350    0.53488    1.000
    Si3668   Si       0.68620    0.49794    0.55762    1.000
    N3669    N        0.66145    0.48618    0.59658    1.000
    N3670    N        0.72060    0.47469    0.56133    1.000
    N3671    N        0.51154    0.50197    0.67375    1.000
    Si3672   Si       0.59327    0.49225    0.66127    1.000
    N3673    N        0.60577    0.52361    0.73230    1.000
    N3674    N        0.57624    0.53077    0.67581    1.000
    Si3675   Si       0.48626    0.53621    0.66233    1.000
    Si3676   Si       0.52516    0.48525    0.63651    1.000
    N3677    N        0.62223    0.51324    0.63529    1.000
    Si3678   Si       0.63282    0.49403    0.71516    1.000
    N3679    N        0.66139    0.50811    0.68719    1.000
    N3680    N        0.72573    0.49958    0.69489    1.000
    Si3681   Si       0.69518    0.52824    0.70251    1.000
    Si3682   Si       0.66638    0.50647    0.64242    1.000
    N3683    N        0.69813    0.51874    0.74566    1.000
    N3684    N        0.57393    0.50472    0.79264    1.000
    N3685    N        0.56629    0.50052    0.86518    1.000
    Si3686   Si       0.53532    0.52202    0.77748    1.000
    N3687    N        0.50875    0.49427    0.75263    1.000
    Si3688   Si       0.60308    0.53113    0.77583    1.000
    N3689    N        0.52357    0.53338    0.81815    1.000
    Si3690   Si       0.49481    0.50351    0.83330    1.000
    Si3691   Si       0.67203    0.49883    0.77382    1.000
    Si3692   Si       0.71581    0.49146    0.83602    1.000
    N3693    N        0.64462    0.52532    0.78866    1.000
    N3694    N        0.70449    0.53460    0.82764    1.000
    N3695    N        0.64288    0.53653    0.85474    1.000
    Si3696   Si       0.50362    0.52908    0.90561    1.000
    Si3697   Si       0.52340    0.51572    0.97152    1.000
    Si3698   Si       0.58517    0.48421    0.98401    1.000
    Si3699   Si       0.59420    0.49814    0.90136    1.000
    N3700    N        0.51291    0.49663    0.93224    1.000
    N3701    N        0.58252    0.48287    0.94143    1.000
    N3702    N        0.54272    0.48296    0.99547    1.000
    N3703    N        0.63569    0.48280    0.89719    1.000
    N3704    N        0.69864    0.48832    0.87578    1.000
    Si3705   Si       0.69099    0.49440    0.98868    1.000
    Si3706   Si       0.66381    0.51464    0.88484    1.000
    N3707    N        0.70437    0.49734    0.94584    1.000
    N3708    N        0.67498    0.53568    0.98552    1.000
    Si3709   Si       0.58600    0.57546    0.10878    1.000
    Si3710   Si       0.53600    0.58146    0.04764    1.000
    N3711    N        0.54525    0.58678    0.08913    1.000
    N3712    N        0.55448    0.54530    0.03119    1.000
    Si3713   Si       0.57741    0.55340    0.99521    1.000
    N3714    N        0.59045    0.53762    0.08689    1.000
    N3715    N        0.49322    0.57549    0.04365    1.000
    N3716    N        0.64106    0.55585    0.04535    1.000
    Si3717   Si       0.63446    0.53911    0.08426    1.000
    N3718    N        0.63721    0.56193    0.11984    1.000
    Si3719   Si       0.52879    0.56000    0.12140    1.000
    N3720    N        0.56461    0.56297    0.14562    1.000
    Si3721   Si       0.57634    0.55913    0.18746    1.000
    N3722    N        0.55675    0.59139    0.20809    1.000
    Si3723   Si       0.50067    0.57652    0.24962    1.000
    Si3724   Si       0.70454    0.57391    0.16228    1.000
    Si3725   Si       0.63960    0.54384    0.15907    1.000
    N3726    N        0.71831    0.58185    0.20427    1.000
    Si3727   Si       0.63417    0.56528    0.23645    1.000
    N3728    N        0.68300    0.53876    0.16082    1.000
    N3729    N        0.73003    0.57839    0.12599    1.000
    N3730    N        0.61900    0.56202    0.19562    1.000
    N3731    N        0.60027    0.56689    0.26268    1.000
    Si3732   Si       0.53089    0.57242    0.31702    1.000
    Si3733   Si       0.59968    0.56002    0.30463    1.000
    N3734    N        0.54140    0.58662    0.35775    1.000
    N3735    N        0.53139    0.58981    0.27644    1.000
    Si3736   Si       0.49609    0.57894    0.36469    1.000
    N3737    N        0.56153    0.54091    0.31168    1.000
    N3738    N        0.49356    0.55018    0.32723    1.000
    Si3739   Si       0.71815    0.53985    0.33440    1.000
    N3740    N        0.73310    0.58220    0.33282    1.000
    N3741    N        0.67260    0.57427    0.35867    1.000
    Si3742   Si       0.63153    0.56461    0.35705    1.000
    N3743    N        0.51319    0.54737    0.39487    1.000
    Si3744   Si       0.55382    0.56848    0.40063    1.000
    N3745    N        0.59958    0.58101    0.38484    1.000
    N3746    N        0.57792    0.54192    0.42415    1.000
    N3747    N        0.70673    0.56721    0.42594    1.000
    N3748    N        0.63728    0.57423    0.45055    1.000
    Si3749   Si       0.61585    0.55929    0.41878    1.000
    Si3750   Si       0.68230    0.54698    0.39453    1.000
    Si3751   Si       0.72055    0.55350    0.46591    1.000
    N3752    N        0.52765    0.57928    0.60252    1.000
    Si3753   Si       0.57275    0.57727    0.51465    1.000
    Si3754   Si       0.60302    0.58593    0.58792    1.000
    N3755    N        0.57449    0.59029    0.55576    1.000
    Si3756   Si       0.50582    0.54423    0.59445    1.000
    N3757    N        0.53305    0.56934    0.49843    1.000
    N3758    N        0.49104    0.54689    0.55385    1.000
    N3759    N        0.59654    0.54219    0.50807    1.000
    N3760    N        0.62602    0.55126    0.57702    1.000
    Si3761   Si       0.69186    0.57603    0.53474    1.000
    N3762    N        0.65286    0.57365    0.51919    1.000
    Si3763   Si       0.62977    0.54215    0.53453    1.000
    N3764    N        0.70471    0.53825    0.55117    1.000
    N3765    N        0.71307    0.58319    0.49820    1.000
    N3766    N        0.58772    0.57608    0.62817    1.000
    Si3767   Si       0.60899    0.54978    0.65474    1.000
    N3768    N        0.58473    0.58887    0.71310    1.000
    N3769    N        0.51337    0.57272    0.66914    1.000
    Si3770   Si       0.57471    0.54667    0.71631    1.000
    Si3771   Si       0.54664    0.58463    0.64234    1.000
    Si3772   Si       0.73792    0.54501    0.63400    1.000
    Si3773   Si       0.67685    0.57624    0.65786    1.000
    N3774    N        0.70417    0.56994    0.69500    1.000
    N3775    N        0.63859    0.57214    0.67520    1.000
    N3776    N        0.69406    0.53939    0.63778    1.000
    N3777    N        0.57993    0.57296    0.84727    1.000
    N3778    N        0.59478    0.57424    0.77689    1.000
    Si3779   Si       0.55026    0.54110    0.85306    1.000
    N3780    N        0.54303    0.55167    0.74681    1.000
    Si3781   Si       0.66298    0.55014    0.81951    1.000
    N3782    N        0.65364    0.59186    0.80961    1.000
    Si3783   Si       0.56511    0.56391    0.92111    1.000
    N3784    N        0.60080    0.58723    0.98579    1.000
    N3785    N        0.53509    0.55509    0.89173    1.000
    N3786    N        0.55229    0.54701    0.96110    1.000
    N3787    N        0.59934    0.54046    0.90675    1.000
    Si3788   Si       0.66704    0.59075    0.90780    1.000
    Si3789   Si       0.61423    0.56283    0.87342    1.000
    N3790    N        0.67279    0.54799    0.91178    1.000
    Si3791   Si       0.69655    0.54118    0.94711    1.000
    N3792    N        0.71129    0.58250    0.95291    1.000
    Si3793   Si       0.73450    0.59859    0.91994    1.000
    Si3794   Si       0.58881    0.62379    0.00928    1.000
    N3795    N        0.55004    0.61109    0.02147    1.000
    N3796    N        0.60576    0.61414    0.10949    1.000
    N3797    N        0.49604    0.64466    0.04756    1.000
    Si3798   Si       0.52961    0.65161    0.02200    1.000
    N3799    N        0.61884    0.63011    0.04137    1.000
    Si3800   Si       0.70788    0.63876    0.02804    1.000
    Si3801   Si       0.71603    0.60876    0.09758    1.000
    N3802    N        0.68049    0.60680    0.01779    1.000
    N3803    N        0.67341    0.60677    0.08595    1.000
    N3804    N        0.71991    0.64964    0.11623    1.000
    Si3805   Si       0.64762    0.60500    0.12000    1.000
    N3806    N        0.73361    0.61816    0.05673    1.000
    Si3807   Si       0.65112    0.59859    0.04797    1.000
    Si3808   Si       0.52722    0.61949    0.19336    1.000
    N3809    N        0.50985    0.63129    0.15445    1.000
    N3810    N        0.49587    0.61070    0.22194    1.000
    N3811    N        0.65429    0.60436    0.23942    1.000
    N3812    N        0.61988    0.64236    0.19240    1.000
    N3813    N        0.66988    0.60348    0.15859    1.000
    Si3814   Si       0.65928    0.64756    0.17206    1.000
    Si3815   Si       0.69327    0.61013    0.22582    1.000
    Si3816   Si       0.62565    0.63896    0.23699    1.000
    N3817    N        0.69116    0.64617    0.20245    1.000
    N3818    N        0.55438    0.63757    0.31900    1.000
    Si3819   Si       0.57780    0.61109    0.35385    1.000
    Si3820   Si       0.51252    0.64324    0.31566    1.000
    N3821    N        0.58469    0.63261    0.25303    1.000
    N3822    N        0.49199    0.65741    0.27737    1.000
    Si3823   Si       0.56754    0.59229    0.25055    1.000
    N3824    N        0.61377    0.59568    0.32770    1.000
    N3825    N        0.72331    0.61760    0.25573    1.000
    Si3826   Si       0.64007    0.63223    0.32672    1.000
    N3827    N        0.68457    0.63453    0.32280    1.000
    Si3828   Si       0.70073    0.60736    0.35253    1.000
    N3829    N        0.53561    0.63468    0.48825    1.000
    N3830    N        0.57047    0.64625    0.37938    1.000
    Si3831   Si       0.57651    0.64656    0.47958    1.000
    N3832    N        0.49951    0.64084    0.40185    1.000
    Si3833   Si       0.54188    0.64291    0.41063    1.000
    N3834    N        0.54561    0.60334    0.42942    1.000
    Si3835   Si       0.52369    0.59914    0.46623    1.000
    N3836    N        0.69894    0.62795    0.39171    1.000
    N3837    N        0.73633    0.63037    0.45227    1.000
    N3838    N        0.66692    0.62927    0.47830    1.000
    Si3839   Si       0.70926    0.62454    0.48478    1.000
    Si3840   Si       0.72412    0.60643    0.41851    1.000
    Si3841   Si       0.63797    0.59763    0.48570    1.000
    N3842    N        0.50425    0.62246    0.55413    1.000
    N3843    N        0.55944    0.64268    0.59693    1.000
    Si3844   Si       0.54064    0.61196    0.57395    1.000
    Si3845   Si       0.51005    0.64946    0.51955    1.000
    N3846    N        0.49421    0.63928    0.62201    1.000
    N3847    N        0.59651    0.60904    0.49352    1.000
    Si3848   Si       0.66897    0.62717    0.59975    1.000
    N3849    N        0.62618    0.62538    0.59201    1.000
    N3850    N        0.69260    0.60199    0.57205    1.000
    N3851    N        0.72102    0.65170    0.51713    1.000
    Si3852   Si       0.73428    0.60292    0.58726    1.000
    N3853    N        0.53386    0.62121    0.72560    1.000
    N3854    N        0.55031    0.62474    0.66098    1.000
    Si3855   Si       0.56922    0.63140    0.70036    1.000
    Si3856   Si       0.50643    0.60432    0.69608    1.000
    N3857    N        0.61097    0.64052    0.69027    1.000
    N3858    N        0.49154    0.64682    0.68598    1.000
    Si3859   Si       0.53453    0.65291    0.63067    1.000
    N3860    N        0.69339    0.63780    0.70384    1.000
    N3861    N        0.64889    0.60733    0.74067    1.000
    N3862    N        0.67732    0.61635    0.63975    1.000
    Si3863   Si       0.66513    0.64757    0.73526    1.000
    Si3864   Si       0.62492    0.60188    0.70621    1.000
    Si3865   Si       0.72206    0.60512    0.71050    1.000
    Si3866   Si       0.69016    0.65200    0.66315    1.000
    Si3867   Si       0.56875    0.61230    0.83095    1.000
    N3868    N        0.53982    0.61184    0.79670    1.000
    Si3869   Si       0.50030    0.63139    0.79569    1.000
    N3870    N        0.54338    0.63608    0.85947    1.000
    N3871    N        0.60485    0.63683    0.82980    1.000
    N3872    N        0.59241    0.63490    0.75952    1.000
    Si3873   Si       0.56003    0.60057    0.75660    1.000
    N3874    N        0.73318    0.61531    0.75170    1.000
    Si3875   Si       0.64293    0.61945    0.83959    1.000
    Si3876   Si       0.71383    0.62212    0.85238    1.000
    N3877    N        0.67734    0.64531    0.84448    1.000
    Si3878   Si       0.62266    0.60631    0.77718    1.000
    N3879    N        0.73073    0.59875    0.82028    1.000
    N3880    N        0.57994    0.60438    0.92216    1.000
    N3881    N        0.51276    0.61977    0.92373    1.000
    Si3882   Si       0.55004    0.63062    0.90202    1.000
    N3883    N        0.60247    0.64841    0.97745    1.000
    Si3884   Si       0.61034    0.61306    0.95058    1.000
    Si3885   Si       0.68604    0.61091    0.97366    1.000
    N3886    N        0.70709    0.65017    0.98165    1.000
    N3887    N        0.70359    0.60502    0.89087    1.000
    N3888    N        0.65346    0.60949    0.94640    1.000
    N3889    N        0.63895    0.59853    0.87771    1.000
    N3890    N        0.52489    0.67744    0.09661    1.000
    Si3891   Si       0.54788    0.69835    0.06744    1.000
    N3892    N        0.56532    0.67133    0.03722    1.000
    Si3893   Si       0.60792    0.67012    0.04570    1.000
    N3894    N        0.60915    0.68317    0.08660    1.000
    Si3895   Si       0.60809    0.65462    0.11734    1.000
    N3896    N        0.62405    0.69646    0.01656    1.000
    N3897    N        0.69827    0.67316    0.05472    1.000
    Si3898   Si       0.68618    0.67108    0.09859    1.000
    Si3899   Si       0.71707    0.70648    0.03386    1.000
    N3900    N        0.59348    0.70696    0.20086    1.000
    Si3901   Si       0.51555    0.69531    0.19808    1.000
    Si3902   Si       0.58382    0.66733    0.18597    1.000
    Si3903   Si       0.53383    0.66652    0.13758    1.000
    N3904    N        0.52618    0.70333    0.15835    1.000
    N3905    N        0.57520    0.66216    0.14330    1.000
    N3906    N        0.54365    0.66056    0.20238    1.000
    Si3907   Si       0.70506    0.68614    0.19467    1.000
    Si3908   Si       0.63533    0.70548    0.21176    1.000
    N3909    N        0.66292    0.69650    0.17913    1.000
    N3910    N        0.65146    0.65557    0.12572    1.000
    N3911    N        0.55918    0.69795    0.28003    1.000
    N3912    N        0.59087    0.70476    0.33697    1.000
    N3913    N        0.49285    0.67528    0.33816    1.000
    Si3914   Si       0.57758    0.65812    0.28755    1.000
    Si3915   Si       0.60071    0.67546    0.36691    1.000
    Si3916   Si       0.69726    0.67798    0.32380    1.000
    Si3917   Si       0.63789    0.69539    0.28327    1.000
    N3918    N        0.67473    0.70983    0.30288    1.000
    N3919    N        0.70429    0.68819    0.36368    1.000
    N3920    N        0.73841    0.67789    0.30914    1.000
    N3921    N        0.61870    0.65782    0.29973    1.000
    N3922    N        0.63906    0.65358    0.36529    1.000
    N3923    N        0.64129    0.67883    0.24366    1.000
    N3924    N        0.60493    0.70859    0.39833    1.000
    N3925    N        0.54502    0.68042    0.43174    1.000
    Si3926   Si       0.58535    0.69672    0.43372    1.000
    N3927    N        0.60389    0.65887    0.44860    1.000
    Si3928   Si       0.73973    0.70723    0.38387    1.000
    N3929    N        0.64314    0.69263    0.49117    1.000
    N3930    N        0.72912    0.69532    0.46651    1.000
    Si3931   Si       0.67580    0.66495    0.38972    1.000
    Si3932   Si       0.64568    0.66196    0.46081    1.000
    N3933    N        0.66950    0.68039    0.42960    1.000
    Si3934   Si       0.69704    0.71312    0.44474    1.000
    N3935    N        0.51888    0.68498    0.54557    1.000
    Si3936   Si       0.55851    0.69988    0.53986    1.000
    N3937    N        0.59466    0.69539    0.56359    1.000
    N3938    N        0.57821    0.68309    0.50377    1.000
    Si3939   Si       0.59847    0.66098    0.59201    1.000
    N3940    N        0.68217    0.66954    0.60592    1.000
    Si3941   Si       0.72555    0.67517    0.60810    1.000
    Si3942   Si       0.72697    0.69563    0.51035    1.000
    Si3943   Si       0.65819    0.70424    0.62113    1.000
    N3944    N        0.53763    0.69426    0.63078    1.000
    N3945    N        0.56018    0.67437    0.70908    1.000
    Si3946   Si       0.51838    0.66470    0.71678    1.000
    N3947    N        0.50069    0.70738    0.71852    1.000
    Si3948   Si       0.59557    0.67467    0.74431    1.000
    Si3949   Si       0.61746    0.67547    0.66716    1.000
    N3950    N        0.63802    0.68085    0.73852    1.000
    N3951    N        0.61617    0.68451    0.62442    1.000
    N3952    N        0.72939    0.66786    0.65161    1.000
    N3953    N        0.66110    0.68362    0.66811    1.000
    Si3954   Si       0.59923    0.67653    0.84730    1.000
    N3955    N        0.56332    0.68896    0.82591    1.000
    Si3956   Si       0.52784    0.67384    0.84306    1.000
    N3957    N        0.50348    0.70091    0.86548    1.000
    N3958    N        0.49288    0.65774    0.75704    1.000
    N3959    N        0.49183    0.66506    0.82033    1.000
    N3960    N        0.57842    0.71223    0.75278    1.000
    Si3961   Si       0.67356    0.68921    0.84557    1.000
    N3962    N        0.63268    0.70198    0.83408    1.000
    N3963    N        0.70704    0.70598    0.82545    1.000
    N3964    N        0.69020    0.66812    0.76480    1.000
    Si3965   Si       0.73100    0.65969    0.75605    1.000
    Si3966   Si       0.67101    0.70863    0.75419    1.000
    N3967    N        0.55105    0.66925    0.92334    1.000
    N3968    N        0.60593    0.68766    0.88886    1.000
    Si3969   Si       0.57412    0.70493    0.91518    1.000
    Si3970   Si       0.51408    0.65898    0.94204    1.000
    N3971    N        0.51173    0.65993    0.98562    1.000
    N3972    N        0.59930    0.71439    0.94826    1.000
    Si3973   Si       0.69744    0.68776    0.96341    1.000
    Si3974   Si       0.62190    0.68685    0.97439    1.000
    N3975    N        0.65734    0.69145    0.94850    1.000
    N3976    N        0.72674    0.69262    0.93229    1.000
    Si3977   Si       0.63942    0.70743    0.91169    1.000
    N3978    N        0.67762    0.70490    0.88733    1.000
    Si3979   Si       0.53968    0.75576    0.02438    1.000
    N3980    N        0.56613    0.73384    0.08485    1.000
    N3981    N        0.51654    0.75991    0.10905    1.000
    N3982    N        0.57757    0.74948    0.00758    1.000
    Si3983   Si       0.60714    0.72473    0.09511    1.000
    N3984    N        0.51905    0.71840    0.03955    1.000
    N3985    N        0.68472    0.71377    0.11176    1.000
    Si3986   Si       0.62046    0.74434    0.02233    1.000
    N3987    N        0.63003    0.73973    0.06350    1.000
    N3988    N        0.71460    0.74328    0.05679    1.000
    Si3989   Si       0.70155    0.75019    0.09748    1.000
    N3990    N        0.49423    0.76158    0.17203    1.000
    Si3991   Si       0.56933    0.74380    0.20424    1.000
    Si3992   Si       0.52616    0.74559    0.14829    1.000
    N3993    N        0.52935    0.73131    0.22071    1.000
    N3994    N        0.56446    0.76045    0.16389    1.000
    Si3995   Si       0.49966    0.76549    0.21405    1.000
    N3996    N        0.58578    0.77473    0.22977    1.000
    Si3997   Si       0.66177    0.72821    0.14770    1.000
    N3998    N        0.68719    0.75919    0.16740    1.000
    N3999    N        0.71111    0.72048    0.22131    1.000
    N4000    N        0.64655    0.74618    0.22291    1.000
    N4001    N        0.62126    0.73695    0.13686    1.000
    Si4002   Si       0.68664    0.75565    0.21135    1.000
    N4003    N        0.55057    0.75731    0.28231    1.000
    Si4004   Si       0.57835    0.73415    0.30663    1.000
    N4005    N        0.57816    0.76190    0.34152    1.000
    Si4006   Si       0.52706    0.72235    0.26595    1.000
    Si4007   Si       0.60708    0.73840    0.36612    1.000
    N4008    N        0.62025    0.73661    0.28584    1.000
    N4009    N        0.64449    0.75280    0.34739    1.000
    Si4010   Si       0.65803    0.75009    0.30750    1.000
    Si4011   Si       0.61932    0.76365    0.25284    1.000
    Si4012   Si       0.58317    0.76334    0.42826    1.000
    N4013    N        0.59477    0.73233    0.45799    1.000
    N4014    N        0.54247    0.74654    0.41740    1.000
    N4015    N        0.49551    0.72816    0.46525    1.000
    Si4016   Si       0.51595    0.71340    0.42817    1.000
    Si4017   Si       0.60596    0.71583    0.49702    1.000
    N4018    N        0.71857    0.73394    0.41244    1.000
    N4019    N        0.67782    0.74480    0.46699    1.000
    N4020    N        0.55727    0.74139    0.52824    1.000
    N4021    N        0.60335    0.76509    0.58489    1.000
    Si4022   Si       0.61962    0.72976    0.56780    1.000
    N4023    N        0.70018    0.72382    0.52844    1.000
    Si4024   Si       0.70073    0.73787    0.56994    1.000
    N4025    N        0.62879    0.74360    0.52628    1.000
    N4026    N        0.66101    0.72715    0.58277    1.000
    Si4027   Si       0.66483    0.72672    0.50433    1.000
    N4028    N        0.73001    0.71792    0.59716    1.000
    Si4029   Si       0.51815    0.73103    0.62364    1.000
    N4030    N        0.54501    0.76447    0.62483    1.000
    N4031    N        0.55215    0.75243    0.69665    1.000
    N4032    N        0.49756    0.74669    0.65850    1.000
    Si4033   Si       0.57066    0.71752    0.70862    1.000
    N4034    N        0.60691    0.71489    0.68668    1.000
    N4035    N        0.67296    0.73491    0.71807    1.000
    Si4036   Si       0.65057    0.72341    0.68532    1.000
    Si4037   Si       0.70192    0.76684    0.71672    1.000
    N4038    N        0.66183    0.74120    0.64683    1.000
    N4039    N        0.58502    0.74833    0.81140    1.000
    N4040    N        0.51721    0.72534    0.78578    1.000
    Si4041   Si       0.49769    0.75479    0.81114    1.000
    Si4042   Si       0.55958    0.71792    0.79271    1.000
    N4043    N        0.52462    0.76212    0.84452    1.000
    N4044    N        0.65828    0.73661    0.78467    1.000
    Si4045   Si       0.62729    0.74098    0.81541    1.000
    Si4046   Si       0.70182    0.73832    0.79733    1.000
    N4047    N        0.71769    0.72471    0.75980    1.000
    N4048    N        0.72282    0.77264    0.81547    1.000
    Si4049   Si       0.51323    0.74102    0.88232    1.000
    N4050    N        0.54980    0.73945    0.90781    1.000
    Si4051   Si       0.61444    0.75486    0.95019    1.000
    N4052    N        0.51237    0.76930    0.99098    1.000
    N4053    N        0.63261    0.75074    0.91107    1.000
    N4054    N        0.64326    0.75827    0.98419    1.000
    N4055    N        0.70128    0.71734    0.99610    1.000
    Si4056   Si       0.70829    0.72531    0.90902    1.000
    Si4057   Si       0.68741    0.75320    0.97894    1.000
    N4058    N        0.70440    0.75559    0.94050    1.000
    N4059    N        0.73539    0.74992    0.88567    1.000
    N4060    N        0.54272    0.78934    0.05174    1.000
    N4061    N        0.54694    0.82028    0.11050    1.000
    N4062    N        0.59714    0.78880    0.10085    1.000
    Si4063   Si       0.54857    0.83021    0.03649    1.000
    Si4064   Si       0.55444    0.77775    0.09214    1.000
    N4065    N        0.62462    0.79252    0.03424    1.000
    Si4066   Si       0.63482    0.78263    0.07577    1.000
    Si4067   Si       0.65346    0.80104    0.00307    1.000
    N4068    N        0.69316    0.78773    0.00556    1.000
    N4069    N        0.66787    0.77743    0.10380    1.000
    N4070    N        0.73378    0.81034    0.05738    1.000
    Si4071   Si       0.72379    0.77728    0.03207    1.000
    N4072    N        0.73393    0.77354    0.11582    1.000
    N4073    N        0.52274    0.80037    0.22672    1.000
    Si4074   Si       0.59978    0.77420    0.14336    1.000
    N4075    N        0.69762    0.82776    0.14754    1.000
    Si4076   Si       0.73079    0.81379    0.21976    1.000
    Si4077   Si       0.66047    0.81281    0.12989    1.000
    N4078    N        0.62654    0.80764    0.16031    1.000
    Si4079   Si       0.71801    0.78868    0.15446    1.000
    N4080    N        0.69457    0.79218    0.22901    1.000
    Si4081   Si       0.56080    0.79965    0.34955    1.000
    N4082    N        0.52785    0.81143    0.32231    1.000
    Si4083   Si       0.55396    0.79145    0.25478    1.000
    N4084    N        0.57215    0.82643    0.27429    1.000
    N4085    N        0.63723    0.79662    0.27081    1.000
    Si4086   Si       0.67855    0.80681    0.26647    1.000
    Si4087   Si       0.73512    0.77892    0.29315    1.000
    N4088    N        0.69200    0.77548    0.29498    1.000
    N4089    N        0.64782    0.82957    0.36661    1.000
    N4090    N        0.54235    0.80705    0.38798    1.000
    N4091    N        0.57530    0.80286    0.44495    1.000
    Si4092   Si       0.60147    0.81926    0.47506    1.000
    N4093    N        0.49341    0.79092    0.43536    1.000
    Si4094   Si       0.51532    0.77728    0.40123    1.000
    N4095    N        0.61294    0.77476    0.39768    1.000
    N4096    N        0.71206    0.80653    0.44867    1.000
    Si4097   Si       0.64856    0.78783    0.37454    1.000
    Si4098   Si       0.73953    0.81128    0.48470    1.000
    N4099    N        0.64011    0.79881    0.48202    1.000
    Si4100   Si       0.72018    0.77688    0.41280    1.000
    Si4101   Si       0.68073    0.78646    0.47219    1.000
    N4102    N        0.69125    0.79268    0.38520    1.000
    N4103    N        0.54059    0.79889    0.56819    1.000
    N4104    N        0.58470    0.80486    0.51476    1.000
    Si4105   Si       0.56974    0.78640    0.59841    1.000
    Si4106   Si       0.54890    0.78369    0.52829    1.000
    N4107    N        0.59655    0.82172    0.60776    1.000
    N4108    N        0.51372    0.79059    0.50332    1.000
    Si4109   Si       0.50909    0.82637    0.58442    1.000
    Si4110   Si       0.62498    0.78558    0.52310    1.000
    N4111    N        0.64996    0.80401    0.55399    1.000
    Si4112   Si       0.69213    0.81103    0.54708    1.000
    N4113    N        0.70517    0.79680    0.50843    1.000
    Si4114   Si       0.63068    0.79900    0.59067    1.000
    N4115    N        0.70838    0.78088    0.57476    1.000
    Si4116   Si       0.73752    0.79765    0.60183    1.000
    N4117    N        0.52075    0.81633    0.67224    1.000
    Si4118   Si       0.51186    0.81958    0.71672    1.000
    Si4119   Si       0.53305    0.77430    0.66545    1.000
    N4120    N        0.68186    0.79453    0.68953    1.000
    N4121    N        0.72284    0.78002    0.63731    1.000
    N4122    N        0.65641    0.80907    0.62345    1.000
    Si4123   Si       0.67986    0.78078    0.64693    1.000
    N4124    N        0.61947    0.81987    0.68070    1.000
    Si4125   Si       0.66040    0.83022    0.69351    1.000
    N4126    N        0.56245    0.81131    0.80245    1.000
    Si4127   Si       0.56352    0.77943    0.83333    1.000
    N4128    N        0.58357    0.78687    0.87089    1.000
    Si4129   Si       0.68385    0.79745    0.83014    1.000
    N4130    N        0.71520    0.79180    0.75085    1.000
    N4131    N        0.67734    0.82697    0.79814    1.000
    Si4132   Si       0.69698    0.82948    0.75882    1.000
    N4133    N        0.64818    0.77118    0.84169    1.000
    Si4134   Si       0.56214    0.78307    0.90784    1.000
    Si4135   Si       0.54251    0.79162    0.96837    1.000
    N4136    N        0.58776    0.78805    0.94587    1.000
    N4137    N        0.52916    0.80245    0.92815    1.000
    Si4138   Si       0.49141    0.82886    0.92552    1.000
    N4139    N        0.54832    0.82547    0.99317    1.000
    Si4140   Si       0.61156    0.82647    0.94161    1.000
    Si4141   Si       0.62630    0.78288    0.88082    1.000
    N4142    N        0.63323    0.81862    0.90317    1.000
    N4143    N        0.73594    0.81909    0.91234    1.000
    N4144    N        0.58086    0.84981    0.05694    1.000
    N4145    N        0.51348    0.85171    0.05484    1.000
    Si4146   Si       0.50964    0.83904    0.09593    1.000
    Si4147   Si       0.58375    0.88782    0.03781    1.000
    N4148    N        0.55267    0.88957    0.00467    1.000
    Si4149   Si       0.59566    0.83398    0.09572    1.000
    N4150    N        0.67016    0.84473    0.03464    1.000
    N4151    N        0.70663    0.86583    0.08624    1.000
    Si4152   Si       0.66305    0.86195    0.07552    1.000
    Si4153   Si       0.71146    0.84544    0.04778    1.000
    N4154    N        0.73108    0.87194    0.02063    1.000
    Si4155   Si       0.65384    0.86657    0.99949    1.000
    N4156    N        0.64129    0.83128    0.09435    1.000
    N4157    N        0.51718    0.87529    0.12304    1.000
    N4158    N        0.58966    0.86039    0.12919    1.000
    N4159    N        0.49629    0.83970    0.17102    1.000
    Si4160   Si       0.54843    0.84838    0.14160    1.000
    N4161    N        0.51482    0.87461    0.22512    1.000
    Si4162   Si       0.60861    0.84002    0.18421    1.000
    N4163    N        0.56393    0.83633    0.18188    1.000
    Si4164   Si       0.52475    0.83834    0.20426    1.000
    N4165    N        0.61937    0.84335    0.22548    1.000
    N4166    N        0.71785    0.85385    0.20587    1.000
    Si4167   Si       0.62655    0.88500    0.23501    1.000
    Si4168   Si       0.71769    0.86362    0.16299    1.000
    N4169    N        0.62648    0.88199    0.17823    1.000
    Si4170   Si       0.70585    0.87800    0.23864    1.000
    Si4171   Si       0.55262    0.84445    0.30867    1.000
    N4172    N        0.52986    0.88208    0.31713    1.000
    Si4173   Si       0.61311    0.85392    0.36411    1.000
    N4174    N        0.58398    0.83374    0.33824    1.000
    Si4175   Si       0.61431    0.83350    0.26648    1.000
    N4176    N        0.62551    0.87265    0.27816    1.000
    N4177    N        0.69239    0.84819    0.26874    1.000
    N4178    N        0.72422    0.85426    0.35569    1.000
    N4179    N        0.52800    0.85214    0.43998    1.000
    N4180    N        0.59237    0.85536    0.40191    1.000
    Si4181   Si       0.60109    0.88473    0.43321    1.000
    N4182    N        0.60698    0.86186    0.46939    1.000
    Si4183   Si       0.53844    0.88445    0.46550    1.000
    Si4184   Si       0.56028    0.83343    0.41673    1.000
    Si4185   Si       0.63709    0.87681    0.49616    1.000
    N4186    N        0.73899    0.85590    0.48311    1.000
    Si4187   Si       0.70419    0.85139    0.45053    1.000
    N4188    N        0.67561    0.86175    0.48112    1.000
    N4189    N        0.68942    0.86407    0.41207    1.000
    Si4190   Si       0.69036    0.83569    0.37836    1.000
    N4191    N        0.53226    0.85169    0.61053    1.000
    N4192    N        0.52860    0.86602    0.50691    1.000
    Si4193   Si       0.57659    0.86255    0.61164    1.000
    Si4194   Si       0.50122    0.83046    0.51079    1.000
    N4195    N        0.62411    0.87332    0.53514    1.000
    N4196    N        0.70343    0.85256    0.54763    1.000
    Si4197   Si       0.70825    0.87283    0.50806    1.000
    Si4198   Si       0.72038    0.87192    0.58255    1.000
    N4199    N        0.62533    0.87903    0.61577    1.000
    Si4200   Si       0.52958    0.85455    0.65411    1.000
    N4201    N        0.57563    0.85976    0.65715    1.000
    Si4202   Si       0.58994    0.84806    0.69634    1.000
    N4203    N        0.61245    0.88163    0.71913    1.000
    N4204    N        0.55941    0.83199    0.72228    1.000
    Si4205   Si       0.62979    0.83917    0.63988    1.000
    N4206    N        0.67131    0.84830    0.72977    1.000
    Si4207   Si       0.65391    0.88740    0.73677    1.000
    N4208    N        0.66009    0.86203    0.66448    1.000
    N4209    N        0.73953    0.88937    0.70343    1.000
    N4210    N        0.50565    0.86053    0.82503    1.000
    N4211    N        0.56403    0.87464    0.77337    1.000
    N4212    N        0.51083    0.83291    0.75849    1.000
    Si4213   Si       0.48745    0.87373    0.86272    1.000
    Si4214   Si       0.55424    0.83208    0.76487    1.000
    Si4215   Si       0.53547    0.88889    0.80443    1.000
    N4216    N        0.73182    0.85581    0.76327    1.000
    Si4217   Si       0.65883    0.86401    0.80921    1.000
    N4218    N        0.63051    0.86256    0.84246    1.000
    N4219    N        0.68823    0.82967    0.86237    1.000
    N4220    N        0.63550    0.88807    0.77788    1.000
    N4221    N        0.58169    0.85611    0.94354    1.000
    Si4222   Si       0.54723    0.86510    0.96883    1.000
    N4223    N        0.50706    0.86377    0.94866    1.000
    N4224    N        0.72095    0.87459    0.94811    1.000
    Si4225   Si       0.65177    0.84957    0.87828    1.000
    N4226    N        0.64208    0.83239    0.97519    1.000
    N4227    N        0.66001    0.88504    0.90124    1.000
    Si4228   Si       0.72680    0.84321    0.87627    1.000
    N4229    N        0.50899    0.93285    0.05286    1.000
    Si4230   Si       0.51792    0.91546    0.01344    1.000
    N4231    N        0.57671    0.91864    0.06684    1.000
    Si4232   Si       0.54396    0.94494    0.07401    1.000
    N4233    N        0.59479    0.94793    0.00303    1.000
    Si4234   Si       0.61341    0.92817    0.08644    1.000
    N4235    N        0.73194    0.92674    0.10521    1.000
    N4236    N        0.64296    0.89790    0.08401    1.000
    N4237    N        0.62057    0.88921    0.01591    1.000
    N4238    N        0.49332    0.91505    0.16693    1.000
    Si4239   Si       0.59859    0.89709    0.14948    1.000
    Si4240   Si       0.50469    0.91610    0.20872    1.000
    N4241    N        0.56128    0.90801    0.17004    1.000
    Si4242   Si       0.52879    0.91525    0.13990    1.000
    N4243    N        0.59513    0.91565    0.23413    1.000
    Si4244   Si       0.57059    0.93363    0.20408    1.000
    N4245    N        0.53153    0.94834    0.21782    1.000
    N4246    N        0.74018    0.90706    0.23449    1.000
    N4247    N        0.60842    0.93410    0.13006    1.000
    Si4248   Si       0.70241    0.93435    0.13649    1.000
    Si4249   Si       0.66129    0.90676    0.18667    1.000
    N4250    N        0.66890    0.90025    0.22826    1.000
    N4251    N        0.69082    0.89742    0.15510    1.000
    Si4252   Si       0.54773    0.91909    0.33204    1.000
    N4253    N        0.58128    0.92186    0.30382    1.000
    Si4254   Si       0.59546    0.94312    0.26921    1.000
    Si4255   Si       0.62320    0.90375    0.30712    1.000
    N4256    N        0.70535    0.92852    0.28183    1.000
    Si4257   Si       0.67388    0.93692    0.25398    1.000
    N4258    N        0.63695    0.93883    0.28190    1.000
    Si4259   Si       0.72796    0.89669    0.36485    1.000
    Si4260   Si       0.73572    0.94722    0.24936    1.000
    Si4261   Si       0.72760    0.94824    0.31265    1.000
    N4262    N        0.62600    0.89149    0.34742    1.000
    N4263    N        0.56922    0.91546    0.37081    1.000
    Si4264   Si       0.49087    0.94293    0.44555    1.000
    N4265    N        0.50652    0.93142    0.40568    1.000
    N4266    N        0.50568    0.91140    0.47070    1.000
    N4267    N        0.56512    0.90802    0.43819    1.000
    Si4268   Si       0.54876    0.93207    0.40589    1.000
    Si4269   Si       0.61214    0.92074    0.37605    1.000
    N4270    N        0.69007    0.91903    0.37568    1.000
    N4271    N        0.69435    0.92734    0.44330    1.000
    N4272    N        0.64540    0.92055    0.49445    1.000
    Si4273   Si       0.67440    0.90409    0.41406    1.000
    N4274    N        0.63028    0.90909    0.41273    1.000
    Si4275   Si       0.68538    0.93463    0.48378    1.000
    N4276    N        0.51549    0.92229    0.54795    1.000
    Si4277   Si       0.55886    0.92953    0.55668    1.000
    N4278    N        0.57914    0.93700    0.51733    1.000
    Si4279   Si       0.50181    0.89952    0.51351    1.000
    N4280    N        0.57614    0.89479    0.57931    1.000
    Si4281   Si       0.62404    0.94187    0.52349    1.000
    N4282    N        0.63680    0.93194    0.56551    1.000
    N4283    N        0.71026    0.91580    0.51141    1.000
    Si4284   Si       0.71948    0.92821    0.60762    1.000
    N4285    N        0.69300    0.89268    0.60980    1.000
    Si4286   Si       0.61968    0.89314    0.57221    1.000
    Si4287   Si       0.53345    0.93098    0.67668    1.000
    N4288    N        0.57570    0.92982    0.67159    1.000
    N4289    N        0.52664    0.93935    0.72069    1.000
    N4290    N        0.51341    0.89091    0.67366    1.000
    N4291    N        0.68714    0.91450    0.74609    1.000
    Si4292   Si       0.65949    0.89758    0.63978    1.000
    Si4293   Si       0.72834    0.92386    0.67913    1.000
    N4294    N        0.68515    0.92262    0.67367    1.000
    N4295    N        0.64064    0.94190    0.63448    1.000
    N4296    N        0.51266    0.91803    0.78267    1.000
    N4297    N        0.56498    0.90544    0.83141    1.000
    Si4298   Si       0.59572    0.89847    0.75635    1.000
    Si4299   Si       0.60496    0.89828    0.84444    1.000
    N4300    N        0.58794    0.93936    0.75296    1.000
    Si4301   Si       0.49289    0.92439    0.74493    1.000
    Si4302   Si       0.65897    0.92275    0.79410    1.000
    N4303    N        0.63377    0.92875    0.83160    1.000
    Si4304   Si       0.71107    0.91443    0.84470    1.000
    N4305    N        0.68824    0.89552    0.81473    1.000
    Si4306   Si       0.72432    0.89381    0.74415    1.000
    Si4307   Si       0.55344    0.92023    0.87134    1.000
    Si4308   Si       0.56529    0.94507    0.96856    1.000
    N4309    N        0.51711    0.89813    0.88412    1.000
    Si4310   Si       0.51079    0.90472    0.92630    1.000
    N4311    N        0.55182    0.91373    0.94084    1.000
    N4312    N        0.58987    0.89976    0.88621    1.000
    Si4313   Si       0.58834    0.89507    0.92703    1.000
    N4314    N        0.62044    0.91663    0.94767    1.000
    Si4315   Si       0.63329    0.92719    0.98867    1.000
    N4316    N        0.68771    0.93373    0.92754    1.000
    Si4317   Si       0.64626    0.92490    0.91442    1.000
    Si4318   Si       0.69964    0.89424    0.91430    1.000
    N4319    N        0.67473    0.90298    0.98940    1.000
    Si4320   Si       0.71507    0.89213    0.98772    1.000
    N4321    N        0.73097    0.93053    0.98007    1.000
    N4322    N        0.72649    0.88976    0.87987    1.000
    N4323    N        0.55148    0.98148    0.05072    1.000
    Si4324   Si       0.52144    0.98419    0.01711    1.000
    Si4325   Si       0.59456    0.97346    0.03708    1.000
    N4326    N        0.53884    0.94898    0.11695    1.000
    N4327    N        0.62100    0.96653    0.07015    1.000
    Si4328   Si       0.64843    0.98637    0.09882    1.000
    N4329    N        0.68236    0.96303    0.10846    1.000
    Si4330   Si       0.72219    0.96726    0.08995    1.000
    N4331    N        0.71788    0.97582    0.04908    1.000
    Si4332   Si       0.51543    0.98445    0.12406    1.000
    Si4333   Si       0.58283    0.00011    0.22133    1.000
    N4334    N        0.59161    0.96979    0.19138    1.000
    Si4335   Si       0.51614    0.98778    0.22975    1.000
    N4336    N        0.49904    0.99658    0.15976    1.000
    Si4337   Si       0.61962    0.96452    0.15977    1.000
    N4338    N        0.62755    0.00038    0.13591    1.000
    Si4339   Si       0.69150    0.97461    0.19118    1.000
    N4340    N        0.72425    0.96076    0.16564    1.000
    N4341    N        0.69992    0.96364    0.23184    1.000
    N4342    N        0.65647    0.94886    0.18035    1.000
    N4343    N        0.58134    0.98259    0.26210    1.000
    N4344    N        0.51134    0.00253    0.27347    1.000
    Si4345   Si       0.49669    0.98046    0.30833    1.000
    N4346    N        0.51428    0.95098    0.33495    1.000
    N4347    N        0.70454    0.97311    0.33842    1.000
    N4348    N        0.62904    0.96047    0.36922    1.000
    Si4349   Si       0.67432    0.95971    0.36818    1.000
    N4350    N        0.56598    0.97283    0.40390    1.000
    N4351    N        0.51722    0.97573    0.45595    1.000
    Si4352   Si       0.59542    0.99084    0.37728    1.000
    Si4353   Si       0.54860    0.99615    0.43571    1.000
    N4354    N        0.57821    0.00495    0.46665    1.000
    N4355    N        0.68186    0.98297    0.40410    1.000
    Si4356   Si       0.70460    0.96905    0.43802    1.000
    N4357    N        0.69214    0.97648    0.47941    1.000
    N4358    N        0.56755    0.96366    0.58048    1.000
    N4359    N        0.53878    0.99133    0.52458    1.000
    N4360    N        0.50143    0.97929    0.59026    1.000
    Si4361   Si       0.58799    0.99621    0.59967    1.000
    Si4362   Si       0.53458    0.99274    0.56827    1.000
    Si4363   Si       0.57621    0.98079    0.50394    1.000
    Si4364   Si       0.50553    0.99226    0.49396    1.000
    N4365    N        0.61826    0.98630    0.51677    1.000
    Si4366   Si       0.65149    0.96015    0.59324    1.000
    N4367    N        0.69526    0.96580    0.59722    1.000
    N4368    N        0.63018    0.99909    0.59201    1.000
    Si4369   Si       0.70952    0.00036    0.51045    1.000
    N4370    N        0.73837    0.97509    0.53186    1.000
    Si4371   Si       0.70903    0.00222    0.61962    1.000
    Si4372   Si       0.60525    0.95687    0.65733    1.000
    N4373    N        0.52202    0.96803    0.65893    1.000
    N4374    N        0.57068    0.99267    0.70983    1.000
    N4375    N        0.58429    0.99275    0.64303    1.000
    Si4376   Si       0.55060    0.99946    0.67025    1.000
    Si4377   Si       0.55721    0.96499    0.74013    1.000
    Si4378   Si       0.48973    0.96727    0.62992    1.000
    Si4379   Si       0.61192    0.00719    0.70595    1.000
    N4380    N        0.69895    0.98958    0.65906    1.000
    N4381    N        0.63438    0.97591    0.68647    1.000
    N4382    N        0.69254    0.99765    0.72923    1.000
    Si4383   Si       0.71999    0.99385    0.69663    1.000
    N4384    N        0.73669    0.95526    0.70930    1.000
    Si4385   Si       0.66801    0.95991    0.66484    1.000
    N4386    N        0.53187    0.98502    0.76998    1.000
    Si4387   Si       0.53784    0.98721    0.84841    1.000
    Si4388   Si       0.50427    0.95979    0.79264    1.000
    N4389    N        0.50365    0.96279    0.83561    1.000
    N4390    N        0.56402    0.01045    0.82103    1.000
    N4391    N        0.67291    0.96322    0.78758    1.000
    Si4392   Si       0.64934    0.96100    0.85631    1.000
    N4393    N        0.64206    0.99919    0.83542    1.000
    Si4394   Si       0.67437    0.00284    0.80838    1.000
    Si4395   Si       0.69949    0.95933    0.75327    1.000
    N4396    N        0.73744    0.96959    0.77176    1.000
    N4397    N        0.69110    0.94878    0.86430    1.000
    N4398    N        0.56200    0.96244    0.87396    1.000
    Si4399   Si       0.59343    0.98100    0.90046    1.000
    N4400    N        0.57682    0.97977    0.94130    1.000
    N4401    N        0.51003    0.99978    0.92807    1.000
    N4402    N        0.52904    0.95034    0.99040    1.000
    Si4403   Si       0.70462    0.96809    0.90316    1.000
    Si4404   Si       0.69501    0.95103    0.96870    1.000
    N4405    N        0.65755    0.96624    0.98852    1.000
    N4406    N        0.70691    0.98836    0.94867    1.000
    N4407    N        0.63122    0.95882    0.89439    1.000
    Si4408   Si       0.77842    0.02325    0.09744    1.000
    Si4409   Si       0.84716    0.04528    0.10617    1.000
    N4410    N        0.85596    0.05141    0.06329    1.000
    N4411    N        0.77446    0.06429    0.10309    1.000
    N4412    N        0.81861    0.01322    0.11167    1.000
    Si4413   Si       0.86144    0.02613    0.02802    1.000
    N4414    N        0.78261    0.01132    0.05543    1.000
    N4415    N        0.90659    0.02248    0.02816    1.000
    N4416    N        0.97116    0.02355    0.07243    1.000
    Si4417   Si       0.92361    0.01780    0.06862    1.000
    N4418    N        0.91945    0.06086    0.07622    1.000
    Si4419   Si       0.92509    0.06014    0.01265    1.000
    Si4420   Si       0.98705    0.01885    0.11543    1.000
    Si4421   Si       0.96379    0.06717    0.06429    1.000
    Si4422   Si       0.91494    0.06075    0.12478    1.000
    N4423    N        0.75704    0.01811    0.17379    1.000
    N4424    N        0.81461    0.02016    0.21745    1.000
    Si4425   Si       0.82028    0.06150    0.22242    1.000
    N4426    N        0.74760    0.02868    0.24351    1.000
    N4427    N        0.88493    0.02892    0.12220    1.000
    Si4428   Si       0.98226    0.01619    0.21188    1.000
    N4429    N        0.98000    0.05786    0.20546    1.000
    N4430    N        0.87898    0.01307    0.20275    1.000
    Si4431   Si       0.88831    0.05443    0.20452    1.000
    N4432    N        0.95432    0.04325    0.13589    1.000
    N4433    N        0.77517    0.03201    0.31259    1.000
    Si4434   Si       0.76640    0.04256    0.35278    1.000
    Si4435   Si       0.81429    0.03521    0.29490    1.000
    N4436    N        0.84336    0.05355    0.32125    1.000
    Si4437   Si       0.74937    0.01262    0.28425    1.000
    N4438    N        0.82628    0.06429    0.26479    1.000
    Si4439   Si       0.87016    0.03878    0.35072    1.000
    N4440    N        0.96510    0.02466    0.35200    1.000
    Si4441   Si       0.91982    0.01169    0.25429    1.000
    Si4442   Si       0.96083    0.06590    0.36392    1.000
    N4443    N        0.90979    0.05224    0.24522    1.000
    Si4444   Si       0.82274    0.01656    0.47895    1.000
    N4445    N        0.78195    0.01625    0.38370    1.000
    N4446    N        0.80973    0.01555    0.43796    1.000
    Si4447   Si       0.76773    0.00991    0.42447    1.000
    N4448    N        0.90119    0.06372    0.36802    1.000
    N4449    N        0.86573    0.01860    0.49080    1.000
    Si4450   Si       0.90245    0.01212    0.46478    1.000
    Si4451   Si       0.91307    0.04984    0.41089    1.000
    N4452    N        0.90504    0.05655    0.45365    1.000
    N4453    N        0.91372    0.00865    0.41906    1.000
    N4454    N        0.78236    0.02788    0.55570    1.000
    Si4455   Si       0.78201    0.03212    0.59750    1.000
    N4456    N        0.84924    0.06046    0.55629    1.000
    N4457    N        0.81545    0.05214    0.50330    1.000
    Si4458   Si       0.86037    0.05551    0.51396    1.000
    Si4459   Si       0.80532    0.06553    0.54940    1.000
    N4460    N        0.74355    0.02582    0.49786    1.000
    N4461    N        0.75028    0.01938    0.62428    1.000
    Si4462   Si       0.96387    0.03565    0.51230    1.000
    N4463    N        0.97303    0.03477    0.55464    1.000
    N4464    N        0.97764    0.05602    0.61729    1.000
    Si4465   Si       0.93394    0.04913    0.62056    1.000
    N4466    N        0.85715    0.06549    0.62785    1.000
    Si4467   Si       0.79586    0.01537    0.71256    1.000
    Si4468   Si       0.75883    0.04404    0.66118    1.000
    Si4469   Si       0.83560    0.03085    0.64968    1.000
    N4470    N        0.75512    0.01918    0.69705    1.000
    N4471    N        0.80848    0.04981    0.73603    1.000
    N4472    N        0.79957    0.05742    0.66674    1.000
    Si4473   Si       0.92112    0.01521    0.73370    1.000
    N4474    N        0.87818    0.02224    0.72700    1.000
    N4475    N        0.92179    0.06216    0.66021    1.000
    N4476    N        0.94092    0.05250    0.72793    1.000
    N4477    N        0.82917    0.03246    0.85842    1.000
    Si4478   Si       0.85415    0.03532    0.82385    1.000
    N4479    N        0.84102    0.01971    0.78575    1.000
    N4480    N        0.74734    0.04212    0.78184    1.000
    Si4481   Si       0.84937    0.04487    0.74916    1.000
    Si4482   Si       0.79219    0.01137    0.85853    1.000
    N4483    N        0.89163    0.01402    0.83236    1.000
    Si4484   Si       0.92286    0.02566    0.80405    1.000
    N4485    N        0.96102    0.02640    0.82395    1.000
    N4486    N        0.91481    0.06541    0.79006    1.000
    N4487    N        0.76105    0.03807    0.87543    1.000
    N4488    N        0.84623    0.04009    0.98800    1.000
    Si4489   Si       0.85084    0.04640    0.89469    1.000
    Si4490   Si       0.81325    0.04474    0.95940    1.000
    N4491    N        0.81479    0.06029    0.91772    1.000
    N4492    N        0.77869    0.01473    0.95131    1.000
    Si4493   Si       0.75161    0.04341    0.97172    1.000
    Si4494   Si       0.87937    0.04780    0.96048    1.000
    N4495    N        0.86845    0.02225    0.92688    1.000
    N4496    N        0.93808    0.04954    0.90722    1.000
    Si4497   Si       0.95534    0.05943    0.94513    1.000
    N4498    N        0.92276    0.04394    0.97222    1.000
    N4499    N        0.83175    0.10817    0.02095    1.000
    N4500    N        0.79989    0.12498    0.09124    1.000
    Si4501   Si       0.79161    0.10960    0.00095    1.000
    N4502    N        0.76780    0.12604    0.03154    1.000
    N4503    N        0.87070    0.12036    0.07999    1.000
    Si4504   Si       0.88572    0.08445    0.06041    1.000
    N4505    N        0.89712    0.09284    0.01761    1.000
    Si4506   Si       0.95966    0.11439    0.11555    1.000
    N4507    N        0.96487    0.06974    0.02280    1.000
    Si4508   Si       0.98249    0.10203    0.99931    1.000
    N4509    N        0.98719    0.09363    0.08915    1.000
    Si4510   Si       0.79470    0.09762    0.12654    1.000
    N4511    N        0.75699    0.10465    0.14909    1.000
    N4512    N        0.85310    0.07925    0.20143    1.000
    Si4513   Si       0.84601    0.10123    0.16634    1.000
    N4514    N        0.83541    0.07862    0.13050    1.000
    N4515    N        0.77909    0.08271    0.21368    1.000
    Si4516   Si       0.74133    0.07171    0.23185    1.000
    Si4517   Si       0.78140    0.12336    0.19825    1.000
    N4518    N        0.81258    0.12794    0.16618    1.000
    N4519    N        0.91849    0.12217    0.22867    1.000
    Si4520   Si       0.96010    0.07016    0.17043    1.000
    N4521    N        0.91634    0.07472    0.17754    1.000
    N4522    N        0.97772    0.10619    0.15474    1.000
    N4523    N        0.91821    0.10415    0.12361    1.000
    Si4524   Si       0.91074    0.11932    0.18278    1.000
    Si4525   Si       0.85185    0.08564    0.29192    1.000
    N4526    N        0.77755    0.08467    0.35998    1.000
    N4527    N        0.83652    0.12492    0.29629    1.000
    N4528    N        0.94865    0.09873    0.33889    1.000
    N4529    N        0.96446    0.08725    0.26813    1.000
    Si4530   Si       0.90592    0.09836    0.33860    1.000
    N4531    N        0.89432    0.09141    0.29562    1.000
    Si4532   Si       0.92153    0.08967    0.26079    1.000
    Si4533   Si       0.96906    0.11477    0.30343    1.000
    N4534    N        0.76512    0.08611    0.46687    1.000
    Si4535   Si       0.74893    0.11842    0.44393    1.000
    Si4536   Si       0.79798    0.09217    0.49279    1.000
    N4537    N        0.82776    0.12077    0.48121    1.000
    Si4538   Si       0.96958    0.10294    0.42709    1.000
    Si4539   Si       0.91987    0.08792    0.48004    1.000
    N4540    N        0.95458    0.06620    0.40670    1.000
    N4541    N        0.93917    0.11661    0.45453    1.000
    N4542    N        0.78889    0.10233    0.53419    1.000
    Si4543   Si       0.80681    0.11583    0.60286    1.000
    N4544    N        0.84773    0.11788    0.58646    1.000
    N4545    N        0.79238    0.07422    0.59409    1.000
    Si4546   Si       0.86846    0.07793    0.58922    1.000
    Si4547   Si       0.97526    0.11015    0.52074    1.000
    N4548    N        0.91325    0.08146    0.59755    1.000
    N4549    N        0.95259    0.07526    0.50553    1.000
    N4550    N        0.88325    0.09184    0.50608    1.000
    Si4551   Si       0.92485    0.12307    0.60685    1.000
    N4552    N        0.98242    0.10735    0.56437    1.000
    Si4553   Si       0.85461    0.11290    0.72097    1.000
    Si4554   Si       0.81657    0.09621    0.67589    1.000
    N4555    N        0.85843    0.08995    0.68407    1.000
    N4556    N        0.74508    0.08899    0.73181    1.000
    N4557    N        0.81287    0.12014    0.71363    1.000
    N4558    N        0.80372    0.12364    0.64454    1.000
    Si4559   Si       0.88673    0.08645    0.65306    1.000
    N4560    N        0.95896    0.11375    0.68650    1.000
    Si4561   Si       0.97366    0.12375    0.72691    1.000
    Si4562   Si       0.95232    0.06941    0.69173    1.000
    Si4563   Si       0.98623    0.12520    0.65547    1.000
    Si4564   Si       0.81138    0.10231    0.81988    1.000
    N4565    N        0.78707    0.09692    0.78246    1.000
    N4566    N        0.78679    0.09860    0.85595    1.000
    N4567    N        0.84992    0.07930    0.81702    1.000
    Si4568   Si       0.74725    0.11336    0.76918    1.000
    Si4569   Si       0.77372    0.06503    0.75465    1.000
    N4570    N        0.86348    0.08614    0.75264    1.000
    Si4571   Si       0.88181    0.09307    0.79026    1.000
    N4572    N        0.94818    0.09639    0.85842    1.000
    Si4573   Si       0.95179    0.07800    0.76417    1.000
    N4574    N        0.97992    0.08465    0.79665    1.000
    N4575    N        0.93783    0.11803    0.75225    1.000
    Si4576   Si       0.97314    0.06813    0.83534    1.000
    N4577    N        0.78230    0.07215    0.98108    1.000
    N4578    N        0.76014    0.10539    0.91096    1.000
    Si4579   Si       0.78130    0.07265    0.89191    1.000
    N4580    N        0.87028    0.09107    0.95501    1.000
    N4581    N        0.87719    0.07935    0.88892    1.000
    Si4582   Si       0.87567    0.11166    0.91918    1.000
    Si4583   Si       0.86641    0.11289    0.99434    1.000
    N4584    N        0.91802    0.11710    0.91573    1.000
    Si4585   Si       0.92034    0.08263    0.88740    1.000
    N4586    N        0.96274    0.09977    0.96129    1.000
    Si4587   Si       0.76580    0.14299    0.07166    1.000
    N4588    N        0.83094    0.16881    0.04924    1.000
    N4589    N        0.77026    0.18493    0.08208    1.000
    Si4590   Si       0.83111    0.12809    0.06112    1.000
    Si4591   Si       0.95729    0.17437    0.01212    1.000
    N4592    N        0.95823    0.14907    0.09133    1.000
    N4593    N        0.97784    0.13829    0.02474    1.000
    N4594    N        0.90026    0.17786    0.10991    1.000
    Si4595   Si       0.88712    0.13577    0.11614    1.000
    Si4596   Si       0.93387    0.18387    0.08463    1.000
    N4597    N        0.74114    0.14143    0.20014    1.000
    Si4598   Si       0.83642    0.16471    0.16320    1.000
    N4599    N        0.79838    0.14287    0.23268    1.000
    Si4600   Si       0.79912    0.18560    0.22674    1.000
    Si4601   Si       0.94762    0.15370    0.23810    1.000
    Si4602   Si       0.98014    0.14526    0.17412    1.000
    N4603    N        0.87235    0.13483    0.15945    1.000
    N4604    N        0.98462    0.13967    0.21653    1.000
    N4605    N        0.93588    0.15362    0.17422    1.000
    Si4606   Si       0.84829    0.14727    0.33042    1.000
    N4607    N        0.81384    0.14478    0.35605    1.000
    Si4608   Si       0.80208    0.14282    0.27540    1.000
    N4609    N        0.76985    0.12953    0.30383    1.000
    Si4610   Si       0.77513    0.12437    0.34657    1.000
    N4611    N        0.86344    0.18445    0.31226    1.000
    N4612    N        0.95089    0.14911    0.28320    1.000
    N4613    N        0.87843    0.12803    0.35351    1.000
    N4614    N        0.92849    0.18163    0.34589    1.000
    N4615    N        0.75345    0.15448    0.37309    1.000
    N4616    N        0.84214    0.14442    0.41772    1.000
    Si4617   Si       0.80315    0.15158    0.39620    1.000
    N4618    N        0.78131    0.14624    0.43706    1.000
    Si4619   Si       0.82028    0.15227    0.45439    1.000
    N4620    N        0.97411    0.13374    0.39428    1.000
    Si4621   Si       0.87289    0.15043    0.38978    1.000
    N4622    N        0.91162    0.15731    0.40985    1.000
    Si4623   Si       0.94609    0.16828    0.38401    1.000
    Si4624   Si       0.97727    0.17965    0.48460    1.000
    Si4625   Si       0.92168    0.15727    0.45143    1.000
    N4626    N        0.88704    0.15769    0.47742    1.000
    N4627    N        0.77856    0.14527    0.58313    1.000
    Si4628   Si       0.75893    0.13179    0.54750    1.000
    N4629    N        0.74637    0.17619    0.53954    1.000
    N4630    N        0.85660    0.17975    0.60651    1.000
    N4631    N        0.85910    0.16220    0.53399    1.000
    Si4632   Si       0.86354    0.12966    0.50247    1.000
    Si4633   Si       0.87017    0.15240    0.57391    1.000
    N4634    N        0.91394    0.14555    0.57092    1.000
    N4635    N        0.96209    0.15043    0.51379    1.000
    Si4636   Si       0.94359    0.16969    0.54924    1.000
    N4637    N        0.98076    0.18081    0.57446    1.000
    N4638    N        0.84344    0.17169    0.67532    1.000
    Si4639   Si       0.78852    0.15412    0.72835    1.000
    Si4640   Si       0.80231    0.16634    0.65886    1.000
    N4641    N        0.77441    0.17473    0.69361    1.000
    Si4642   Si       0.85153    0.18130    0.71666    1.000
    N4643    N        0.96335    0.13596    0.62103    1.000
    N4644    N        0.98978    0.16216    0.73807    1.000
    N4645    N        0.89593    0.12745    0.64037    1.000
    Si4646   Si       0.87481    0.16587    0.64455    1.000
    N4647    N        0.87862    0.15030    0.72834    1.000
    N4648    N        0.83020    0.13995    0.82980    1.000
    N4649    N        0.76032    0.15287    0.75970    1.000
    Si4650   Si       0.86264    0.16491    0.81519    1.000
    Si4651   Si       0.76239    0.13149    0.87449    1.000
    Si4652   Si       0.83329    0.15495    0.86994    1.000
    N4653    N        0.81961    0.18078    0.74501    1.000
    N4654    N        0.87110    0.17831    0.85869    1.000
    Si4655   Si       0.90825    0.14766    0.75874    1.000
    N4656    N        0.88660    0.13762    0.79442    1.000
    N4657    N        0.93936    0.16507    0.86520    1.000
    N4658    N        0.93249    0.18266    0.76231    1.000
    N4659    N        0.99172    0.17865    0.80943    1.000
    N4660    N        0.79211    0.16567    0.87725    1.000
    N4661    N        0.75530    0.17089    0.92898    1.000
    Si4662   Si       0.83098    0.15651    0.95058    1.000
    N4663    N        0.84248    0.14019    0.91111    1.000
    N4664    N        0.79860    0.13461    0.96585    1.000
    Si4665   Si       0.76171    0.13094    0.94516    1.000
    Si4666   Si       0.96742    0.13271    0.87338    1.000
    Si4667   Si       0.90014    0.18170    0.96635    1.000
    Si4668   Si       0.94999    0.13436    0.94079    1.000
    N4669    N        0.86648    0.15440    0.97819    1.000
    N4670    N        0.98131    0.14417    0.91376    1.000
    N4671    N        0.93781    0.16116    0.97258    1.000
    Si4672   Si       0.83243    0.20858    0.03864    1.000
    Si4673   Si       0.80143    0.20663    0.10407    1.000
    N4674    N        0.80863    0.22602    0.00824    1.000
    N4675    N        0.81372    0.23357    0.07170    1.000
    N4676    N        0.74863    0.23685    0.03551    1.000
    N4677    N        0.86901    0.22975    0.04792    1.000
    N4678    N        0.96233    0.21646    0.09221    1.000
    Si4679   Si       0.90774    0.22357    0.02807    1.000
    Si4680   Si       0.97051    0.23655    0.05354    1.000
    N4681    N        0.98263    0.21073    0.01777    1.000
    N4682    N        0.92723    0.18814    0.04186    1.000
    N4683    N        0.77721    0.22975    0.13242    1.000
    N4684    N        0.76367    0.20760    0.21908    1.000
    Si4685   Si       0.86135    0.22190    0.20073    1.000
    N4686    N        0.83350    0.18998    0.12735    1.000
    N4687    N        0.83028    0.19199    0.19715    1.000
    N4688    N        0.86016    0.22659    0.24600    1.000
    Si4689   Si       0.92853    0.19546    0.18141    1.000
    Si4690   Si       0.98428    0.21260    0.13117    1.000
    N4691    N        0.88847    0.20861    0.17191    1.000
    Si4692   Si       0.87569    0.20649    0.12921    1.000
    N4693    N        0.94128    0.19519    0.22474    1.000
    N4694    N        0.95543    0.22219    0.16167    1.000
    N4695    N        0.78058    0.21149    0.33383    1.000
    Si4696   Si       0.76781    0.20495    0.29186    1.000
    Si4697   Si       0.84444    0.20786    0.28248    1.000
    N4698    N        0.80457    0.18840    0.27177    1.000
    Si4699   Si       0.76792    0.19690    0.37132    1.000
    N4700    N        0.93993    0.22148    0.28850    1.000
    Si4701   Si       0.88851    0.20118    0.34460    1.000
    Si4702   Si       0.95292    0.22948    0.24881    1.000
    N4703    N        0.89150    0.24330    0.33453    1.000
    Si4704   Si       0.95124    0.18519    0.30983    1.000
    N4705    N        0.81941    0.19335    0.46523    1.000
    Si4706   Si       0.83622    0.22058    0.39835    1.000
    N4707    N        0.74713    0.20563    0.46639    1.000
    Si4708   Si       0.78411    0.20188    0.44148    1.000
    Si4709   Si       0.83608    0.23385    0.47461    1.000
    N4710    N        0.80025    0.19583    0.40140    1.000
    N4711    N        0.74380    0.22782    0.38789    1.000
    Si4712   Si       0.96732    0.22270    0.42938    1.000
    N4713    N        0.94711    0.19269    0.45714    1.000
    N4714    N        0.97770    0.19548    0.39547    1.000
    N4715    N        0.86474    0.19397    0.37948    1.000
    N4716    N        0.80103    0.21791    0.56519    1.000
    Si4717   Si       0.82693    0.21089    0.60141    1.000
    Si4718   Si       0.76908    0.18939    0.57474    1.000
    N4719    N        0.73961    0.21313    0.59641    1.000
    N4720    N        0.91933    0.20057    0.53069    1.000
    N4721    N        0.95083    0.23032    0.61323    1.000
    Si4722   Si       0.98761    0.21903    0.59086    1.000
    N4723    N        0.87225    0.22892    0.49698    1.000
    Si4724   Si       0.88301    0.18792    0.50964    1.000
    Si4725   Si       0.90545    0.24201    0.52182    1.000
    N4726    N        0.79704    0.19899    0.62982    1.000
    Si4727   Si       0.76357    0.22457    0.63118    1.000
    Si4728   Si       0.74943    0.20954    0.70196    1.000
    N4729    N        0.77179    0.24204    0.71977    1.000
    N4730    N        0.90510    0.19548    0.65545    1.000
    N4731    N        0.93801    0.23079    0.70769    1.000
    N4732    N        0.86842    0.22136    0.71241    1.000
    Si4733   Si       0.90143    0.22593    0.68329    1.000
    Si4734   Si       0.97967    0.24707    0.70880    1.000
    N4735    N        0.76678    0.21377    0.79092    1.000
    Si4736   Si       0.80925    0.20920    0.77647    1.000
    N4737    N        0.84030    0.20237    0.80744    1.000
    Si4738   Si       0.85157    0.21880    0.84862    1.000
    Si4739   Si       0.95382    0.20507    0.84912    1.000
    N4740    N        0.97535    0.22803    0.75708    1.000
    N4741    N        0.94911    0.23331    0.81736    1.000
    Si4742   Si       0.93146    0.22416    0.75010    1.000
    Si4743   Si       0.97580    0.18610    0.77027    1.000
    Si4744   Si       0.78485    0.19498    0.91034    1.000
    N4745    N        0.83433    0.23111    0.88608    1.000
    N4746    N        0.76839    0.23171    0.89247    1.000
    N4747    N        0.81602    0.19993    0.94012    1.000
    Si4748   Si       0.85233    0.22161    0.92414    1.000
    Si4749   Si       0.80778    0.23764    0.96571    1.000
    N4750    N        0.92407    0.22374    0.87809    1.000
    N4751    N        0.88699    0.19377    0.92423    1.000
    N4752    N        0.90263    0.22217    0.98522    1.000
    Si4753   Si       0.90596    0.18597    0.88512    1.000
    N4754    N        0.79870    0.29196    0.02881    1.000
    Si4755   Si       0.85207    0.25471    0.07867    1.000
    N4756    N        0.85208    0.29816    0.07483    1.000
    Si4757   Si       0.78804    0.25192    0.03840    1.000
    N4758    N        0.76703    0.29824    0.10430    1.000
    N4759    N        0.93366    0.25473    0.04292    1.000
    Si4760   Si       0.92584    0.29622    0.03301    1.000
    N4761    N        0.89725    0.29095    0.99966    1.000
    N4762    N        0.87456    0.24884    0.11708    1.000
    N4763    N        0.80651    0.26665    0.23484    1.000
    N4764    N        0.85046    0.26089    0.18135    1.000
    Si4765   Si       0.76492    0.27000    0.13668    1.000
    Si4766   Si       0.81714    0.28344    0.19613    1.000
    N4767    N        0.78035    0.28809    0.17385    1.000
    Si4768   Si       0.76724    0.24746    0.23711    1.000
    Si4769   Si       0.95019    0.25725    0.18651    1.000
    Si4770   Si       0.88148    0.27343    0.15149    1.000
    N4771    N        0.92050    0.28365    0.16657    1.000
    N4772    N        0.93297    0.26121    0.22790    1.000
    N4773    N        0.77655    0.28069    0.33287    1.000
    Si4774   Si       0.84211    0.26483    0.25798    1.000
    Si4775   Si       0.80475    0.24685    0.33050    1.000
    N4776    N        0.82862    0.25097    0.36744    1.000
    N4777    N        0.83034    0.24631    0.29677    1.000
    Si4778   Si       0.74120    0.27733    0.30558    1.000
    N4779    N        0.75532    0.24469    0.27848    1.000
    Si4780   Si       0.86601    0.27039    0.35689    1.000
    Si4781   Si       0.93031    0.25066    0.31943    1.000
    N4782    N        0.92946    0.28690    0.29559    1.000
    N4783    N        0.95486    0.25007    0.35519    1.000
    Si4784   Si       0.91536    0.29270    0.25438    1.000
    N4785    N        0.87361    0.29678    0.25030    1.000
    N4786    N        0.78430    0.24814    0.44016    1.000
    Si4787   Si       0.80058    0.29060    0.43337    1.000
    N4788    N        0.76872    0.29609    0.40394    1.000
    Si4789   Si       0.74617    0.26033    0.41861    1.000
    Si4790   Si       0.76408    0.24302    0.48109    1.000
    N4791    N        0.85116    0.24519    0.43216    1.000
    N4792    N        0.94600    0.25994    0.42629    1.000
    Si4793   Si       0.87183    0.28302    0.42601    1.000
    N4794    N        0.89409    0.28318    0.38791    1.000
    N4795    N        0.89557    0.29926    0.45647    1.000
    Si4796   Si       0.93577    0.28341    0.46183    1.000
    Si4797   Si       0.93737    0.27416    0.38698    1.000
    N4798    N        0.84002    0.28297    0.54930    1.000
    N4799    N        0.76794    0.28260    0.56210    1.000
    Si4800   Si       0.80175    0.25815    0.54446    1.000
    N4801    N        0.84459    0.24817    0.60978    1.000
    Si4802   Si       0.77500    0.29690    0.60200    1.000
    N4803    N        0.80360    0.25171    0.50095    1.000
    Si4804   Si       0.86668    0.27251    0.58146    1.000
    Si4805   Si       0.94007    0.26082    0.58217    1.000
    N4806    N        0.90222    0.25586    0.56256    1.000
    Si4807   Si       0.97487    0.25103    0.51685    1.000
    N4808    N        0.97559    0.25026    0.56069    1.000
    N4809    N        0.94311    0.29373    0.61235    1.000
    N4810    N        0.93574    0.26197    0.50010    1.000
    N4811    N        0.78045    0.26357    0.63035    1.000
    Si4812   Si       0.82168    0.27695    0.63390    1.000
    N4813    N        0.83524    0.29026    0.67206    1.000
    Si4814   Si       0.86475    0.25074    0.74357    1.000
    N4815    N        0.87211    0.29159    0.73034    1.000
    Si4816   Si       0.90322    0.29863    0.69353    1.000
    N4817    N        0.97604    0.26984    0.66846    1.000
    Si4818   Si       0.94312    0.26196    0.64335    1.000
    N4819    N        0.90500    0.26497    0.66596    1.000
    N4820    N        0.76800    0.28329    0.78326    1.000
    Si4821   Si       0.83856    0.26078    0.80424    1.000
    N4822    N        0.82579    0.24953    0.76444    1.000
    N4823    N        0.80524    0.25309    0.83279    1.000
    Si4824   Si       0.76666    0.25145    0.81232    1.000
    Si4825   Si       0.78938    0.27152    0.74660    1.000
    N4826    N        0.87284    0.25264    0.83113    1.000
    Si4827   Si       0.91157    0.25242    0.80810    1.000
    N4828    N        0.92286    0.28848    0.85971    1.000
    N4829    N        0.97770    0.29333    0.80317    1.000
    Si4830   Si       0.98360    0.25159    0.79226    1.000
    N4831    N        0.91174    0.29568    0.79963    1.000
    N4832    N        0.89720    0.23920    0.76876    1.000
    Si4833   Si       0.88336    0.29912    0.83889    1.000
    Si4834   Si       0.80079    0.25403    0.87546    1.000
    N4835    N        0.79686    0.29247    0.89501    1.000
    N4836    N        0.77460    0.26328    0.95612    1.000
    N4837    N        0.84765    0.25244    0.95431    1.000
    Si4838   Si       0.77927    0.30023    0.93474    1.000
    N4839    N        0.97387    0.26777    0.90730    1.000
    Si4840   Si       0.98789    0.29499    0.93938    1.000
    N4841    N        0.90352    0.27362    0.92599    1.000
    Si4842   Si       0.93221    0.26319    0.89362    1.000
    Si4843   Si       0.88927    0.25998    0.96733    1.000
    N4844    N        0.80415    0.34580    0.07708    1.000
    Si4845   Si       0.82577    0.32007    0.04718    1.000
    N4846    N        0.84585    0.34199    0.01575    1.000
    Si4847   Si       0.76265    0.33790    0.09288    1.000
    Si4848   Si       0.88081    0.32329    0.09419    1.000
    N4849    N        0.91860    0.31845    0.06977    1.000
    Si4850   Si       0.94655    0.35066    0.08296    1.000
    N4851    N        0.96183    0.31228    0.01484    1.000
    N4852    N        0.91256    0.35594    0.99636    1.000
    N4853    N        0.83235    0.32491    0.20413    1.000
    N4854    N        0.75544    0.34348    0.22582    1.000
    Si4855   Si       0.85474    0.34260    0.16996    1.000
    Si4856   Si       0.75187    0.30923    0.19923    1.000
    Si4857   Si       0.84719    0.33054    0.24589    1.000
    N4858    N        0.89239    0.35559    0.18451    1.000
    Si4859   Si       0.92427    0.32857    0.16580    1.000
    N4860    N        0.93778    0.34805    0.12801    1.000
    N4861    N        0.87128    0.31514    0.13818    1.000
    Si4862   Si       0.97046    0.33873    0.23029    1.000
    N4863    N        0.95980    0.33521    0.18865    1.000
    N4864    N        0.82262    0.32514    0.28232    1.000
    Si4865   Si       0.82891    0.33624    0.32340    1.000
    N4866    N        0.80205    0.33916    0.35980    1.000
    Si4867   Si       0.77259    0.30927    0.36406    1.000
    N4868    N        0.85909    0.30968    0.34101    1.000
    Si4869   Si       0.98120    0.33375    0.35455    1.000
    Si4870   Si       0.93651    0.33014    0.29960    1.000
    N4871    N        0.97706    0.33183    0.31092    1.000
    Si4872   Si       0.89926    0.32619    0.36141    1.000
    N4873    N        0.91077    0.35185    0.32720    1.000
    N4874    N        0.93422    0.33378    0.25515    1.000
    Si4875   Si       0.83730    0.34346    0.38913    1.000
    N4876    N        0.78814    0.31791    0.46458    1.000
    Si4877   Si       0.81154    0.34712    0.48806    1.000
    Si4878   Si       0.74478    0.31136    0.46411    1.000
    N4879    N        0.83537    0.30957    0.41624    1.000
    N4880    N        0.94417    0.31615    0.36956    1.000
    N4881    N        0.95682    0.32156    0.46843    1.000
    Si4882   Si       0.89190    0.33093    0.48643    1.000
    N4883    N        0.87909    0.35485    0.38506    1.000
    Si4884   Si       0.84844    0.33749    0.60754    1.000
    N4885    N        0.81349    0.31232    0.60975    1.000
    N4886    N        0.84808    0.35268    0.56643    1.000
    N4887    N        0.74253    0.32544    0.61160    1.000
    N4888    N        0.79058    0.35454    0.52716    1.000
    Si4889   Si       0.85950    0.32055    0.53896    1.000
    N4890    N        0.84883    0.32883    0.49761    1.000
    N4891    N        0.90280    0.32691    0.53042    1.000
    N4892    N        0.97133    0.34225    0.53665    1.000
    N4893    N        0.87988    0.30931    0.60196    1.000
    Si4894   Si       0.93058    0.35485    0.55090    1.000
    Si4895   Si       0.98842    0.32327    0.50118    1.000
    Si4896   Si       0.91553    0.32540    0.62115    1.000
    N4897    N        0.92833    0.35899    0.59520    1.000
    N4898    N        0.76662    0.35070    0.67654    1.000
    N4899    N        0.85385    0.35244    0.71040    1.000
    Si4900   Si       0.83813    0.31151    0.70993    1.000
    N4901    N        0.79817    0.30819    0.72550    1.000
    Si4902   Si       0.77110    0.34230    0.71747    1.000
    N4903    N        0.92992    0.30781    0.72525    1.000
    Si4904   Si       0.95939    0.33848    0.72058    1.000
    N4905    N        0.90389    0.33106    0.66374    1.000
    N4906    N        0.80767    0.33954    0.84147    1.000
    Si4907   Si       0.84076    0.34549    0.81374    1.000
    N4908    N        0.75519    0.35953    0.79889    1.000
    N4909    N        0.84648    0.30309    0.80302    1.000
    Si4910   Si       0.74177    0.31947    0.78257    1.000
    N4911    N        0.95106    0.34982    0.82188    1.000
    N4912    N        0.89618    0.35290    0.76650    1.000
    N4913    N        0.88296    0.34765    0.83351    1.000
    Si4914   Si       0.90066    0.31057    0.75910    1.000
    N4915    N        0.98092    0.34855    0.75603    1.000
    Si4916   Si       0.94510    0.30725    0.82883    1.000
    Si4917   Si       0.82058    0.32504    0.88068    1.000
    N4918    N        0.79954    0.33711    0.94863    1.000
    Si4919   Si       0.76055    0.35453    0.95538    1.000
    Si4920   Si       0.83805    0.35419    0.94061    1.000
    N4921    N        0.74311    0.32427    0.92700    1.000
    N4922    N        0.86117    0.30739    0.87589    1.000
    Si4923   Si       0.95328    0.34332    0.98542    1.000
    N4924    N        0.86687    0.32491    0.94994    1.000
    Si4925   Si       0.87731    0.35781    0.87635    1.000
    Si4926   Si       0.94859    0.35407    0.91310    1.000
    Si4927   Si       0.87958    0.32853    0.99205    1.000
    N4928    N        0.96129    0.32994    0.94521    1.000
    Si4929   Si       0.88256    0.30836    0.91407    1.000
    N4930    N        0.98241    0.35259    0.88294    1.000
    N4931    N        0.90880    0.34042    0.90234    1.000
    N4932    N        0.79315    0.40571    0.10303    1.000
    Si4933   Si       0.82716    0.38043    0.00920    1.000
    N4934    N        0.78425    0.38168    0.01087    1.000
    Si4935   Si       0.82341    0.37291    0.10543    1.000
    Si4936   Si       0.74572    0.36655    0.02284    1.000
    N4937    N        0.82894    0.41838    0.03045    1.000
    Si4938   Si       0.89560    0.39640    0.08651    1.000
    N4939    N        0.93014    0.38746    0.06200    1.000
    Si4940   Si       0.93164    0.39083    0.01759    1.000
    N4941    N        0.97873    0.39367    0.10798    1.000
    N4942    N        0.86490    0.36526    0.08887    1.000
    Si4943   Si       0.81555    0.40698    0.16821    1.000
    N4944    N        0.77195    0.41122    0.16573    1.000
    N4945    N        0.82784    0.37071    0.14827    1.000
    Si4946   Si       0.75394    0.40694    0.12656    1.000
    N4947    N        0.85942    0.37251    0.24562    1.000
    N4948    N        0.74357    0.36076    0.12724    1.000
    N4949    N        0.81625    0.41571    0.21192    1.000
    N4950    N        0.92808    0.39945    0.23432    1.000
    N4951    N        0.96455    0.41425    0.16829    1.000
    Si4952   Si       0.96296    0.40979    0.21207    1.000
    Si4953   Si       0.94906    0.39003    0.13716    1.000
    Si4954   Si       0.89110    0.38555    0.21733    1.000
    N4955    N        0.90972    0.40496    0.12828    1.000
    N4956    N        0.84653    0.37673    0.32752    1.000
    N4957    N        0.80004    0.40658    0.28536    1.000
    Si4958   Si       0.81898    0.40853    0.32398    1.000
    Si4959   Si       0.82929    0.40416    0.25233    1.000
    Si4960   Si       0.75644    0.41245    0.27804    1.000
    N4961    N        0.78863    0.41531    0.35524    1.000
    N4962    N        0.74335    0.38975    0.31738    1.000
    N4963    N        0.90149    0.41125    0.29558    1.000
    N4964    N        0.97492    0.40685    0.29209    1.000
    Si4965   Si       0.88893    0.38991    0.33139    1.000
    N4966    N        0.98532    0.37890    0.36018    1.000
    N4967    N        0.90448    0.41612    0.36437    1.000
    Si4968   Si       0.93702    0.41960    0.27163    1.000
    Si4969   Si       0.82824    0.40502    0.44067    1.000
    N4970    N        0.82035    0.38939    0.48022    1.000
    N4971    N        0.81823    0.37568    0.41045    1.000
    Si4972   Si       0.78397    0.38013    0.38290    1.000
    N4973    N        0.75448    0.39704    0.41308    1.000
    N4974    N        0.74474    0.38326    0.48444    1.000
    N4975    N        0.87159    0.41367    0.42723    1.000
    N4976    N        0.93706    0.38035    0.41492    1.000
    N4977    N        0.96649    0.39821    0.47209    1.000
    Si4978   Si       0.89692    0.39203    0.39862    1.000
    Si4979   Si       0.92893    0.40290    0.49244    1.000
    N4980    N        0.91167    0.36600    0.47411    1.000
    Si4981   Si       0.97573    0.38601    0.40222    1.000
    Si4982   Si       0.95070    0.36031    0.45190    1.000
    N4983    N        0.79194    0.38069    0.59866    1.000
    Si4984   Si       0.81097    0.37532    0.55988    1.000
    Si4985   Si       0.74963    0.36861    0.59912    1.000
    N4986    N        0.82020    0.41703    0.54689    1.000
    Si4987   Si       0.74750    0.35784    0.52008    1.000
    Si4988   Si       0.95690    0.38763    0.60968    1.000
    N4989    N        0.93457    0.39720    0.53519    1.000
    N4990    N        0.76912    0.38425    0.73058    1.000
    Si4991   Si       0.75973    0.39253    0.68434    1.000
    Si4992   Si       0.81648    0.39287    0.63349    1.000
    N4993    N        0.79852    0.41076    0.66916    1.000
    N4994    N        0.84685    0.36261    0.64106    1.000
    N4995    N        0.89387    0.40059    0.66797    1.000
    Si4996   Si       0.87471    0.36259    0.67360    1.000
    N4997    N        0.94567    0.38194    0.71729    1.000
    N4998    N        0.96253    0.39337    0.65325    1.000
    Si4999   Si       0.93473    0.40805    0.68363    1.000
    N5000    N        0.86951    0.41503    0.73740    1.000
    Si5001   Si       0.76106    0.39280    0.77199    1.000
    N5002    N        0.83458    0.37353    0.78091    1.000
    N5003    N        0.77461    0.39849    0.86181    1.000
    N5004    N        0.83902    0.40582    0.84174    1.000
    Si5005   Si       0.82855    0.41250    0.79816    1.000
    Si5006   Si       0.76773    0.36236    0.83915    1.000
    N5007    N        0.90817    0.40742    0.80765    1.000
    Si5008   Si       0.88132    0.41936    0.83900    1.000
    Si5009   Si       0.91180    0.36421    0.80670    1.000
    Si5010   Si       0.86205    0.37557    0.74737    1.000
    Si5011   Si       0.98591    0.36717    0.84269    1.000
    Si5012   Si       0.98101    0.39296    0.74586    1.000
    Si5013   Si       0.81488    0.39777    0.87866    1.000
    N5014    N        0.84346    0.38826    0.96821    1.000
    N5015    N        0.74677    0.39379    0.94455    1.000
    N5016    N        0.83733    0.36242    0.89736    1.000
    N5017    N        0.94451    0.39352    0.92782    1.000
    N5018    N        0.89671    0.39751    0.87426    1.000
    Si5019   Si       0.97797    0.40543    0.95403    1.000
    N5020    N        0.96503    0.38528    0.99012    1.000
    Si5021   Si       0.91463    0.41776    0.90853    1.000
    Si5022   Si       0.84721    0.45035    0.05377    1.000
    Si5023   Si       0.78466    0.44411    0.08481    1.000
    N5024    N        0.81791    0.47003    0.07962    1.000
    N5025    N        0.75141    0.45202    0.11150    1.000
    N5026    N        0.76487    0.43893    0.04658    1.000
    Si5027   Si       0.78841    0.42577    0.01394    1.000
    N5028    N        0.86075    0.47720    0.02356    1.000
    Si5029   Si       0.97916    0.43494    0.09222    1.000
    N5030    N        0.94274    0.45509    0.09658    1.000
    Si5031   Si       0.92642    0.44480    0.05695    1.000
    Si5032   Si       0.90089    0.46918    0.00775    1.000
    N5033    N        0.91617    0.43002    0.01381    1.000
    N5034    N        0.88477    0.43624    0.07275    1.000
    N5035    N        0.98012    0.43821    0.05004    1.000
    Si5036   Si       0.85233    0.44592    0.21387    1.000
    N5037    N        0.84165    0.43566    0.14719    1.000
    Si5038   Si       0.77266    0.42747    0.20513    1.000
    N5039    N        0.77026    0.47117    0.20077    1.000
    N5040    N        0.74413    0.42684    0.23905    1.000
    N5041    N        0.88361    0.42164    0.19342    1.000
    Si5042   Si       0.98689    0.45311    0.16137    1.000
    Si5043   Si       0.88652    0.43194    0.15127    1.000
    N5044    N        0.89110    0.47525    0.14207    1.000
    N5045    N        0.97433    0.44697    0.23363    1.000
    N5046    N        0.84809    0.44059    0.32196    1.000
    Si5047   Si       0.75024    0.42806    0.33986    1.000
    N5048    N        0.85426    0.44078    0.25559    1.000
    N5049    N        0.74585    0.45215    0.30316    1.000
    Si5050   Si       0.87893    0.44896    0.28900    1.000
    N5051    N        0.91938    0.46268    0.26937    1.000
    Si5052   Si       0.91492    0.45877    0.37056    1.000
    Si5053   Si       0.95179    0.48099    0.24614    1.000
    N5054    N        0.80237    0.44127    0.44017    1.000
    Si5055   Si       0.76099    0.44139    0.42777    1.000
    N5056    N        0.75739    0.47352    0.39902    1.000
    N5057    N        0.84042    0.45479    0.49214    1.000
    Si5058   Si       0.82707    0.47491    0.45537    1.000
    Si5059   Si       0.88033    0.47022    0.49008    1.000
    N5060    N        0.90935    0.43936    0.48003    1.000
    Si5061   Si       0.89698    0.44625    0.43901    1.000
    N5062    N        0.92863    0.45800    0.41241    1.000
    N5063    N        0.77293    0.44127    0.51106    1.000
    Si5064   Si       0.81839    0.44660    0.57980    1.000
    N5065    N        0.77810    0.46072    0.58126    1.000
    Si5066   Si       0.76011    0.47033    0.54047    1.000
    Si5067   Si       0.81369    0.42441    0.50490    1.000
    N5068    N        0.83818    0.42570    0.61531    1.000
    Si5069   Si       0.74065    0.47606    0.60082    1.000
    Si5070   Si       0.96065    0.42890    0.55439    1.000
    N5071    N        0.95055    0.42827    0.59677    1.000
    N5072    N        0.96634    0.46927    0.53939    1.000
    Si5073   Si       0.93157    0.46352    0.60868    1.000
    N5074    N        0.85072    0.45784    0.68086    1.000
    Si5075   Si       0.81000    0.44613    0.68854    1.000
    N5076    N        0.80660    0.45322    0.73118    1.000
    Si5077   Si       0.74111    0.46575    0.67371    1.000
    N5078    N        0.78394    0.47690    0.67425    1.000
    Si5079   Si       0.86932    0.43517    0.64832    1.000
    N5080    N        0.90117    0.45976    0.63933    1.000
    Si5081   Si       0.94736    0.46112    0.73748    1.000
    N5082    N        0.93936    0.45100    0.69588    1.000
    N5083    N        0.85187    0.44920    0.79312    1.000
    Si5084   Si       0.78640    0.46138    0.76700    1.000
    Si5085   Si       0.74875    0.43367    0.86328    1.000
    N5086    N        0.75642    0.47054    0.84006    1.000
    N5087    N        0.74524    0.46667    0.74954    1.000
    N5088    N        0.78748    0.42202    0.78847    1.000
    Si5089   Si       0.87188    0.45534    0.75357    1.000
    N5090    N        0.91282    0.46060    0.76431    1.000
    N5091    N        0.88659    0.46056    0.84877    1.000
    N5092    N        0.95351    0.46023    0.82819    1.000
    Si5093   Si       0.93445    0.43947    0.79519    1.000
    N5094    N        0.96696    0.42979    0.76495    1.000
    Si5095   Si       0.92568    0.47367    0.85830    1.000
    N5096    N        0.77613    0.44527    0.97717    1.000
    N5097    N        0.84140    0.46607    0.96056    1.000
    Si5098   Si       0.77106    0.42952    0.93526    1.000
    N5099    N        0.74835    0.44872    0.90343    1.000
    Si5100   Si       0.84270    0.42536    0.94602    1.000
    N5101    N        0.80822    0.41887    0.91810    1.000
    N5102    N        0.93652    0.45402    0.89350    1.000
    N5103    N        0.98324    0.44788    0.94828    1.000
    Si5104   Si       0.97176    0.46945    0.91277    1.000
    N5105    N        0.88163    0.43290    0.92926    1.000
    Si5106   Si       0.87947    0.47458    0.93936    1.000
    N5107    N        0.79410    0.50370    0.01536    1.000
    Si5108   Si       0.81196    0.50585    0.10197    1.000
    N5109    N        0.77746    0.52792    0.08653    1.000
    Si5110   Si       0.78633    0.53411    0.04464    1.000
    N5111    N        0.84557    0.53241    0.10519    1.000
    Si5112   Si       0.83306    0.49588    0.99448    1.000
    N5113    N        0.93013    0.52119    0.10260    1.000
    Si5114   Si       0.92226    0.52100    0.06011    1.000
    N5115    N        0.92363    0.48522    0.03951    1.000
    N5116    N        0.85179    0.48417    0.19408    1.000
    N5117    N        0.80149    0.53087    0.20945    1.000
    Si5118   Si       0.78160    0.50505    0.17800    1.000
    Si5119   Si       0.84417    0.52731    0.20142    1.000
    N5120    N        0.81024    0.49798    0.14537    1.000
    N5121    N        0.74729    0.51911    0.15562    1.000
    Si5122   Si       0.84792    0.47930    0.15201    1.000
    Si5123   Si       0.93075    0.48456    0.12518    1.000
    Si5124   Si       0.96073    0.52271    0.18251    1.000
    N5125    N        0.86683    0.53458    0.23926    1.000
    N5126    N        0.93916    0.51156    0.21831    1.000
    N5127    N        0.95802    0.48640    0.15859    1.000
    N5128    N        0.75402    0.51845    0.32104    1.000
    N5129    N        0.81335    0.49821    0.34937    1.000
    N5130    N        0.81612    0.52113    0.28123    1.000
    Si5131   Si       0.79641    0.52457    0.32037    1.000
    Si5132   Si       0.85870    0.52686    0.28240    1.000
    N5133    N        0.75333    0.50032    0.25684    1.000
    Si5134   Si       0.78573    0.52772    0.25071    1.000
    Si5135   Si       0.85073    0.47893    0.33949    1.000
    N5136    N        0.98437    0.53167    0.34529    1.000
    N5137    N        0.87480    0.49259    0.30307    1.000
    Si5138   Si       0.91960    0.49668    0.29919    1.000
    Si5139   Si       0.97701    0.48835    0.32935    1.000
    N5140    N        0.97107    0.49519    0.28543    1.000
    N5141    N        0.93320    0.48131    0.33739    1.000
    N5142    N        0.91526    0.53580    0.27824    1.000
    Si5143   Si       0.78971    0.49700    0.38565    1.000
    N5144    N        0.80767    0.50928    0.47370    1.000
    N5145    N        0.82153    0.50192    0.41467    1.000
    Si5146   Si       0.86273    0.50417    0.40740    1.000
    N5147    N        0.87785    0.48146    0.37428    1.000
    N5148    N        0.87257    0.48253    0.44643    1.000
    Si5149   Si       0.95607    0.48242    0.43723    1.000
    N5150    N        0.94009    0.52078    0.44983    1.000
    N5151    N        0.98304    0.48994    0.40266    1.000
    N5152    N        0.76629    0.51114    0.52987    1.000
    N5153    N        0.74846    0.51908    0.60100    1.000
    N5154    N        0.84117    0.48051    0.56962    1.000
    Si5155   Si       0.74762    0.53450    0.56037    1.000
    Si5156   Si       0.78548    0.53324    0.49977    1.000
    N5157    N        0.89630    0.49718    0.51779    1.000
    Si5158   Si       0.87600    0.50072    0.56118    1.000
    Si5159   Si       0.93333    0.49723    0.53948    1.000
    N5160    N        0.91384    0.48569    0.57702    1.000
    N5161    N        0.98276    0.52073    0.57996    1.000
    Si5162   Si       0.79107    0.51753    0.68870    1.000
    N5163    N        0.83340    0.52873    0.68196    1.000
    N5164    N        0.77791    0.52332    0.72957    1.000
    Si5165   Si       0.73889    0.50572    0.73707    1.000
    Si5166   Si       0.86174    0.49740    0.69440    1.000
    N5167    N        0.86143    0.49555    0.73841    1.000
    Si5168   Si       0.98359    0.51748    0.62361    1.000
    N5169    N        0.95716    0.48697    0.63552    1.000
    N5170    N        0.90236    0.51261    0.68465    1.000
    Si5171   Si       0.92582    0.48197    0.66821    1.000
    N5172    N        0.79706    0.49734    0.78846    1.000
    Si5173   Si       0.78832    0.49859    0.83201    1.000
    N5174    N        0.82825    0.49728    0.85007    1.000
    Si5175   Si       0.85952    0.48126    0.82329    1.000
    Si5176   Si       0.79672    0.53649    0.76720    1.000
    Si5177   Si       0.86864    0.52936    0.76639    1.000
    N5178    N        0.87978    0.51722    0.80578    1.000
    N5179    N        0.92487    0.51569    0.86307    1.000
    N5180    N        0.97808    0.48869    0.74367    1.000
    Si5181   Si       0.84707    0.52189    0.88375    1.000
    N5182    N        0.77213    0.50952    0.95352    1.000
    Si5183   Si       0.76454    0.48596    0.98928    1.000
    N5184    N        0.85234    0.53423    0.98230    1.000
    Si5185   Si       0.94749    0.50829    0.96739    1.000
    N5186    N        0.96188    0.50894    0.92537    1.000
    N5187    N        0.91007    0.48386    0.96801    1.000
    N5188    N        0.87501    0.51313    0.91856    1.000
    N5189    N        0.98418    0.49968    0.99101    1.000
    N5190    N        0.76687    0.56956    0.02962    1.000
    N5191    N        0.84658    0.59363    0.10579    1.000
    Si5192   Si       0.85634    0.56261    0.07608    1.000
    Si5193   Si       0.82760    0.56436    0.00098    1.000
    N5194    N        0.82810    0.55316    0.04443    1.000
    N5195    N        0.89277    0.55511    0.05293    1.000
    N5196    N        0.95583    0.54435    0.04466    1.000
    Si5197   Si       0.92829    0.58052    0.05174    1.000
    N5198    N        0.93371    0.59040    0.09234    1.000
    Si5199   Si       0.95085    0.55705    0.11736    1.000
    Si5200   Si       0.76142    0.54914    0.12487    1.000
    N5201    N        0.79693    0.56677    0.14583    1.000
    Si5202   Si       0.84044    0.56187    0.13626    1.000
    Si5203   Si       0.75265    0.59366    0.22973    1.000
    N5204    N        0.86614    0.55052    0.17047    1.000
    Si5205   Si       0.90980    0.53916    0.23621    1.000
    N5206    N        0.91016    0.57762    0.21782    1.000
    N5207    N        0.94018    0.55319    0.15960    1.000
    Si5208   Si       0.90425    0.57342    0.17405    1.000
    N5209    N        0.79655    0.56881    0.32924    1.000
    N5210    N        0.77010    0.56810    0.25866    1.000
    Si5211   Si       0.83662    0.58611    0.32999    1.000
    Si5212   Si       0.76550    0.58512    0.30003    1.000
    Si5213   Si       0.76811    0.57313    0.36240    1.000
    N5214    N        0.86254    0.56011    0.30839    1.000
    Si5215   Si       0.90522    0.56776    0.30422    1.000
    N5216    N        0.93206    0.57513    0.33566    1.000
    Si5217   Si       0.96606    0.56790    0.36259    1.000
    N5218    N        0.82896    0.56905    0.44003    1.000
    Si5219   Si       0.83944    0.57678    0.48270    1.000
    N5220    N        0.76245    0.55028    0.46366    1.000
    Si5221   Si       0.86141    0.57968    0.40879    1.000
    N5222    N        0.77800    0.54069    0.39236    1.000
    Si5223   Si       0.79573    0.53844    0.43649    1.000
    N5224    N        0.84845    0.59541    0.37030    1.000
    Si5225   Si       0.90382    0.54573    0.45128    1.000
    Si5226   Si       0.96293    0.55691    0.44595    1.000
    N5227    N        0.88407    0.54215    0.41150    1.000
    N5228    N        0.97554    0.56090    0.40448    1.000
    N5229    N        0.93027    0.58182    0.45031    1.000
    N5230    N        0.87811    0.55441    0.48396    1.000
    N5231    N        0.75953    0.57688    0.56331    1.000
    N5232    N        0.80939    0.56682    0.51328    1.000
    Si5233   Si       0.79590    0.58999    0.54719    1.000
    N5234    N        0.82818    0.59047    0.57572    1.000
    Si5235   Si       0.86496    0.57129    0.59015    1.000
    N5236    N        0.90171    0.59571    0.52761    1.000
    N5237    N        0.94341    0.58340    0.58452    1.000
    Si5238   Si       0.96676    0.55581    0.56114    1.000
    Si5239   Si       0.90022    0.55144    0.52207    1.000
    N5240    N        0.87645    0.54275    0.55948    1.000
    N5241    N        0.94137    0.53806    0.53192    1.000
    N5242    N        0.74268    0.58804    0.62650    1.000
    N5243    N        0.77277    0.54780    0.66180    1.000
    Si5244   Si       0.84683    0.56682    0.66377    1.000
    Si5245   Si       0.77492    0.59105    0.65845    1.000
    N5246    N        0.86587    0.55558    0.62857    1.000
    N5247    N        0.97540    0.55640    0.64121    1.000
    N5248    N        0.87601    0.58192    0.69058    1.000
    N5249    N        0.94183    0.57270    0.70385    1.000
    Si5250   Si       0.90317    0.55221    0.70236    1.000
    Si5251   Si       0.98127    0.56921    0.68257    1.000
    Si5252   Si       0.96122    0.59363    0.62175    1.000
    N5253    N        0.76433    0.55915    0.78302    1.000
    N5254    N        0.83399    0.55555    0.76285    1.000
    Si5255   Si       0.74392    0.55636    0.82109    1.000
    Si5256   Si       0.84797    0.59505    0.84818    1.000
    N5257    N        0.77275    0.53608    0.84664    1.000
    N5258    N        0.86618    0.55566    0.86406    1.000
    Si5259   Si       0.95926    0.58699    0.85713    1.000
    N5260    N        0.92572    0.57225    0.82889    1.000
    N5261    N        0.98023    0.55971    0.76210    1.000
    Si5262   Si       0.93980    0.57149    0.74981    1.000
    Si5263   Si       0.90027    0.54099    0.83794    1.000
    N5264    N        0.90148    0.54926    0.74685    1.000
    Si5265   Si       0.78707    0.56161    0.87780    1.000
    N5266    N        0.75815    0.56576    0.90858    1.000
    N5267    N        0.80250    0.57334    0.96580    1.000
    Si5268   Si       0.78522    0.54513    0.93658    1.000
    N5269    N        0.81281    0.53896    0.90292    1.000
    N5270    N        0.92607    0.54703    0.97300    1.000
    N5271    N        0.98371    0.55001    0.87082    1.000
    N5272    N        0.93033    0.57672    0.89318    1.000
    Si5273   Si       0.88420    0.54004    0.95342    1.000
    Si5274   Si       0.88680    0.58144    0.89576    1.000
    N5275    N        0.87678    0.58274    0.93823    1.000
    Si5276   Si       0.95306    0.57835    0.98468    1.000
    Si5277   Si       0.94998    0.53749    0.89272    1.000
    N5278    N        0.80967    0.62432    0.06060    1.000
    Si5279   Si       0.82158    0.62747    0.10320    1.000
    Si5280   Si       0.84363    0.63073    0.03351    1.000
    Si5281   Si       0.77446    0.61036    0.04058    1.000
    N5282    N        0.78153    0.63170    0.00249    1.000
    N5283    N        0.84966    0.60100    0.00273    1.000
    N5284    N        0.88518    0.63759    0.04629    1.000
    Si5285   Si       0.91643    0.64039    0.01547    1.000
    N5286    N        0.93764    0.60412    0.01640    1.000
    Si5287   Si       0.93160    0.62345    0.11994    1.000
    N5288    N        0.78606    0.63323    0.12999    1.000
    Si5289   Si       0.79467    0.60896    0.16334    1.000
    N5290    N        0.77572    0.61838    0.20250    1.000
    N5291    N        0.83648    0.61769    0.17167    1.000
    Si5292   Si       0.84745    0.64357    0.20645    1.000
    N5293    N        0.90233    0.60982    0.14980    1.000
    N5294    N        0.94056    0.63987    0.22939    1.000
    Si5295   Si       0.91045    0.61268    0.24416    1.000
    Si5296   Si       0.86913    0.63692    0.14947    1.000
    N5297    N        0.97304    0.62354    0.13545    1.000
    N5298    N        0.86912    0.63127    0.24253    1.000
    N5299    N        0.77719    0.62748    0.29153    1.000
    N5300    N        0.83974    0.62346    0.30855    1.000
    Si5301   Si       0.80591    0.65298    0.31104    1.000
    Si5302   Si       0.74403    0.64892    0.27499    1.000
    N5303    N        0.79936    0.64730    0.35419    1.000
    Si5304   Si       0.87229    0.63763    0.28506    1.000
    Si5305   Si       0.94562    0.61504    0.31886    1.000
    N5306    N        0.97222    0.61038    0.28636    1.000
    N5307    N        0.90737    0.61084    0.28922    1.000
    N5308    N        0.97620    0.61011    0.35609    1.000
    Si5309   Si       0.97831    0.63125    0.24631    1.000
    N5310    N        0.92962    0.64835    0.34462    1.000
    Si5311   Si       0.84051    0.63950    0.37233    1.000
    N5312    N        0.75896    0.60484    0.39096    1.000
    N5313    N        0.84422    0.62095    0.48428    1.000
    N5314    N        0.81889    0.63969    0.41070    1.000
    Si5315   Si       0.84683    0.63906    0.44583    1.000
    Si5316   Si       0.78055    0.64125    0.39224    1.000
    N5317    N        0.91447    0.64087    0.48273    1.000
    N5318    N        0.88072    0.61672    0.42504    1.000
    Si5319   Si       0.95937    0.64628    0.37544    1.000
    Si5320   Si       0.92113    0.62250    0.44196    1.000
    N5321    N        0.95302    0.63996    0.41887    1.000
    N5322    N        0.79329    0.63223    0.53509    1.000
    Si5323   Si       0.84611    0.63103    0.57506    1.000
    N5324    N        0.74639    0.64608    0.58311    1.000
    Si5325   Si       0.82092    0.65220    0.50890    1.000
    N5326    N        0.85964    0.64862    0.53743    1.000
    N5327    N        0.93596    0.64686    0.55039    1.000
    N5328    N        0.88379    0.61441    0.59293    1.000
    Si5329   Si       0.91731    0.60995    0.56478    1.000
    Si5330   Si       0.88193    0.62617    0.50618    1.000
    N5331    N        0.75736    0.61624    0.68822    1.000
    Si5332   Si       0.82747    0.64158    0.64782    1.000
    N5333    N        0.85238    0.62685    0.73938    1.000
    N5334    N        0.81794    0.59912    0.65622    1.000
    Si5335   Si       0.89776    0.63743    0.62773    1.000
    Si5336   Si       0.87430    0.62448    0.70004    1.000
    Si5337   Si       0.94184    0.61537    0.68840    1.000
    N5338    N        0.93002    0.61551    0.64605    1.000
    N5339    N        0.86894    0.64640    0.66298    1.000
    N5340    N        0.91559    0.63902    0.71174    1.000
    N5341    N        0.98668    0.61150    0.68392    1.000
    N5342    N        0.79843    0.61775    0.78284    1.000
    Si5343   Si       0.75709    0.60217    0.78493    1.000
    Si5344   Si       0.78985    0.63984    0.87158    1.000
    Si5345   Si       0.83649    0.59943    0.76968    1.000
    N5346    N        0.74814    0.65167    0.86016    1.000
    N5347    N        0.80509    0.60034    0.86458    1.000
    N5348    N        0.86266    0.60120    0.80748    1.000
    Si5349   Si       0.90740    0.60493    0.80508    1.000
    N5350    N        0.93261    0.60936    0.77013    1.000
    N5351    N        0.92204    0.63636    0.83288    1.000
    Si5352   Si       0.96879    0.64207    0.83188    1.000
    Si5353   Si       0.92809    0.64769    0.75254    1.000
    N5354    N        0.98611    0.60172    0.82366    1.000
    Si5355   Si       0.90415    0.64615    0.87149    1.000
    N5356    N        0.76082    0.62738    0.93441    1.000
    Si5357   Si       0.79245    0.61624    0.96354    1.000
    N5358    N        0.82860    0.63551    0.94773    1.000
    Si5359   Si       0.86352    0.61577    0.96276    1.000
    N5360    N        0.91666    0.64642    0.91257    1.000
    N5361    N        0.89593    0.64302    0.97552    1.000
    N5362    N        0.97060    0.62947    0.87836    1.000
    Si5363   Si       0.95502    0.62791    0.92047    1.000
    N5364    N        0.87273    0.61857    0.87673    1.000
    N5365    N        0.97030    0.60517    0.95352    1.000
    N5366    N        0.83268    0.67017    0.01777    1.000
    N5367    N        0.76174    0.69773    0.02753    1.000
    Si5368   Si       0.85359    0.70499    0.03065    1.000
    Si5369   Si       0.79064    0.67519    0.00345    1.000
    N5370    N        0.84784    0.65880    0.11828    1.000
    Si5371   Si       0.86228    0.69787    0.10965    1.000
    N5372    N        0.76908    0.70250    0.12139    1.000
    N5373    N        0.87324    0.69940    0.06791    1.000
    N5374    N        0.93587    0.67625    0.03326    1.000
    Si5375   Si       0.90511    0.67192    0.06615    1.000
    Si5376   Si       0.97644    0.69778    0.02682    1.000
    N5377    N        0.92155    0.66388    0.10470    1.000
    N5378    N        0.81564    0.67224    0.21293    1.000
    Si5379   Si       0.75581    0.66504    0.13511    1.000
    N5380    N        0.74448    0.67520    0.17767    1.000
    Si5381   Si       0.77309    0.66102    0.20838    1.000
    N5382    N        0.75690    0.67763    0.24465    1.000
    Si5383   Si       0.92926    0.70006    0.12639    1.000
    Si5384   Si       0.98319    0.66351    0.14882    1.000
    Si5385   Si       0.88481    0.70927    0.17934    1.000
    N5386    N        0.94649    0.68255    0.16198    1.000
    Si5387   Si       0.93588    0.67561    0.20360    1.000
    N5388    N        0.87578    0.66747    0.18137    1.000
    N5389    N        0.96998    0.69773    0.22148    1.000
    N5390    N        0.90989    0.71249    0.21346    1.000
    N5391    N        0.89183    0.71733    0.13659    1.000
    N5392    N        0.80609    0.69419    0.30147    1.000
    Si5393   Si       0.76679    0.70995    0.31317    1.000
    Si5394   Si       0.84441    0.71214    0.29219    1.000
    N5395    N        0.87405    0.67933    0.30151    1.000
    Si5396   Si       0.89762    0.67826    0.33869    1.000
    N5397    N        0.79446    0.66726    0.47328    1.000
    N5398    N        0.76222    0.67692    0.40812    1.000
    Si5399   Si       0.75851    0.66883    0.44966    1.000
    Si5400   Si       0.82337    0.70066    0.47156    1.000
    N5401    N        0.85655    0.68205    0.44923    1.000
    N5402    N        0.91539    0.70860    0.42196    1.000
    N5403    N        0.86684    0.67433    0.37129    1.000
    N5404    N        0.98154    0.69845    0.44505    1.000
    Si5405   Si       0.87465    0.69551    0.40941    1.000
    N5406    N        0.97914    0.68411    0.38085    1.000
    Si5407   Si       0.95688    0.70684    0.41191    1.000
    N5408    N        0.76438    0.69564    0.53170    1.000
    Si5409   Si       0.83841    0.70124    0.60585    1.000
    N5410    N        0.82932    0.69660    0.51545    1.000
    N5411    N        0.83360    0.65618    0.60539    1.000
    Si5412   Si       0.75701    0.65368    0.54226    1.000
    N5413    N        0.80215    0.71398    0.58352    1.000
    N5414    N        0.86387    0.71340    0.57209    1.000
    Si5415   Si       0.86887    0.69037    0.53686    1.000
    N5416    N        0.90628    0.69820    0.51938    1.000
    Si5417   Si       0.93295    0.66634    0.51076    1.000
    Si5418   Si       0.94721    0.67661    0.57736    1.000
    N5419    N        0.97210    0.68586    0.50993    1.000
    N5420    N        0.91518    0.67355    0.61166    1.000
    N5421    N        0.98503    0.67980    0.59812    1.000
    Si5422   Si       0.75865    0.65895    0.68251    1.000
    N5423    N        0.79800    0.66700    0.66697    1.000
    N5424    N        0.84285    0.70898    0.64747    1.000
    Si5425   Si       0.80605    0.71256    0.66891    1.000
    N5426    N        0.74819    0.67770    0.72057    1.000
    Si5427   Si       0.87424    0.68955    0.67180    1.000
    N5428    N        0.86576    0.69208    0.71560    1.000
    N5429    N        0.97856    0.71403    0.69757    1.000
    N5430    N        0.91015    0.71236    0.66673    1.000
    N5431    N        0.82451    0.68515    0.77025    1.000
    Si5432   Si       0.80353    0.69713    0.86003    1.000
    N5433    N        0.75659    0.66573    0.79306    1.000
    N5434    N        0.80970    0.66108    0.83775    1.000
    Si5435   Si       0.74388    0.68447    0.82963    1.000
    Si5436   Si       0.85924    0.66811    0.75106    1.000
    Si5437   Si       0.80004    0.65846    0.79479    1.000
    N5438    N        0.77128    0.71716    0.83968    1.000
    Si5439   Si       0.90783    0.68181    0.81596    1.000
    N5440    N        0.95430    0.68421    0.81948    1.000
    N5441    N        0.89429    0.68727    0.85737    1.000
    N5442    N        0.95605    0.68282    0.75308    1.000
    N5443    N        0.89402    0.66428    0.77788    1.000
    Si5444   Si       0.76414    0.67063    0.93087    1.000
    N5445    N        0.79133    0.68638    0.96165    1.000
    N5446    N        0.79686    0.67221    0.89966    1.000
    Si5447   Si       0.82395    0.67647    0.93475    1.000
    Si5448   Si       0.89912    0.66970    0.94419    1.000
    N5449    N        0.98156    0.70487    0.87969    1.000
    N5450    N        0.98076    0.66443    0.93084    1.000
    N5451    N        0.86503    0.68750    0.92465    1.000
    Si5452   Si       0.96686    0.70052    0.95939    1.000
    N5453    N        0.92269    0.70389    0.95707    1.000
    Si5454   Si       0.87158    0.71324    0.88524    1.000
    Si5455   Si       0.78021    0.73577    0.03627    1.000
    N5456    N        0.78071    0.75700    0.07575    1.000
    N5457    N        0.82198    0.73377    0.02346    1.000
    Si5458   Si       0.78917    0.73858    0.11565    1.000
    N5459    N        0.76037    0.76610    0.01029    1.000
    N5460    N        0.83241    0.72888    0.11546    1.000
    Si5461   Si       0.84829    0.75884    0.99786    1.000
    N5462    N        0.88036    0.72832    0.00417    1.000
    N5463    N        0.95311    0.73147    0.10830    1.000
    Si5464   Si       0.92074    0.74262    0.99726    1.000
    Si5465   Si       0.96939    0.76722    0.04437    1.000
    N5466    N        0.92773    0.77159    0.03413    1.000
    N5467    N        0.96431    0.73201    0.99633    1.000
    Si5468   Si       0.84226    0.75392    0.14907    1.000
    N5469    N        0.79912    0.76669    0.15139    1.000
    N5470    N        0.77954    0.73319    0.21311    1.000
    N5471    N        0.84643    0.72924    0.18542    1.000
    Si5472   Si       0.75125    0.72059    0.24185    1.000
    Si5473   Si       0.78347    0.76960    0.19071    1.000
    Si5474   Si       0.81872    0.71330    0.21830    1.000
    Si5475   Si       0.94414    0.73096    0.23508    1.000
    Si5476   Si       0.97620    0.76939    0.17484    1.000
    N5477    N        0.96061    0.76525    0.21503    1.000
    N5478    N        0.76370    0.72743    0.35303    1.000
    N5479    N        0.85497    0.74159    0.32025    1.000
    N5480    N        0.75445    0.73855    0.28215    1.000
    N5481    N        0.83366    0.73173    0.25361    1.000
    Si5482   Si       0.77413    0.76888    0.36033    1.000
    Si5483   Si       0.83307    0.77468    0.24886    1.000
    Si5484   Si       0.87894    0.74218    0.35541    1.000
    Si5485   Si       0.94232    0.75211    0.36156    1.000
    N5486    N        0.95996    0.72600    0.27529    1.000
    N5487    N        0.91544    0.71825    0.34945    1.000
    Si5488   Si       0.96608    0.76629    0.29127    1.000
    N5489    N        0.96528    0.77485    0.33294    1.000
    N5490    N        0.81220    0.74154    0.46591    1.000
    N5491    N        0.86423    0.73769    0.39639    1.000
    Si5492   Si       0.90502    0.75333    0.41140    1.000
    N5493    N        0.95868    0.74979    0.40110    1.000
    Si5494   Si       0.97594    0.71976    0.48419    1.000
    N5495    N        0.94543    0.74826    0.49499    1.000
    Si5496   Si       0.76791    0.73623    0.60352    1.000
    N5497    N        0.80414    0.76202    0.53262    1.000
    Si5498   Si       0.80063    0.71808    0.54107    1.000
    Si5499   Si       0.98960    0.72635    0.59174    1.000
    Si5500   Si       0.88051    0.75492    0.57787    1.000
    Si5501   Si       0.92861    0.73501    0.53321    1.000
    N5502    N        0.90307    0.75163    0.61437    1.000
    N5503    N        0.94602    0.71882    0.57067    1.000
    N5504    N        0.89984    0.76956    0.54347    1.000
    N5505    N        0.98691    0.77139    0.59395    1.000
    N5506    N        0.73786    0.74968    0.70173    1.000
    N5507    N        0.77720    0.73536    0.64697    1.000
    Si5508   Si       0.75550    0.72293    0.73040    1.000
    N5509    N        0.79997    0.72213    0.70961    1.000
    Si5510   Si       0.75356    0.76729    0.66579    1.000
    N5511    N        0.96734    0.72968    0.63459    1.000
    Si5512   Si       0.93987    0.73010    0.69441    1.000
    Si5513   Si       0.89443    0.76135    0.65687    1.000
    Si5514   Si       0.87664    0.73325    0.72532    1.000
    Si5515   Si       0.92723    0.71478    0.62463    1.000
    N5516    N        0.91987    0.73438    0.73239    1.000
    N5517    N        0.86868    0.75863    0.69096    1.000
    N5518    N        0.93544    0.77139    0.67606    1.000
    Si5519   Si       0.75247    0.75580    0.84492    1.000
    N5520    N        0.85167    0.74720    0.75921    1.000
    N5521    N        0.77651    0.74408    0.76408    1.000
    N5522    N        0.85451    0.76553    0.82920    1.000
    Si5523   Si       0.82716    0.76733    0.86410    1.000
    Si5524   Si       0.81548    0.72359    0.75174    1.000
    Si5525   Si       0.87629    0.75314    0.79397    1.000
    N5526    N        0.96225    0.75323    0.78622    1.000
    N5527    N        0.94334    0.75756    0.84951    1.000
    N5528    N        0.90590    0.72215    0.79899    1.000
    Si5529   Si       0.96941    0.72126    0.84152    1.000
    Si5530   Si       0.93777    0.71983    0.76986    1.000
    N5531    N        0.83162    0.72597    0.87536    1.000
    N5532    N        0.84686    0.74404    0.94952    1.000
    Si5533   Si       0.81917    0.77425    0.93726    1.000
    N5534    N        0.77656    0.77179    0.94054    1.000
    N5535    N        0.91089    0.76809    0.96295    1.000
    N5536    N        0.89816    0.74280    0.90160    1.000
    Si5537   Si       0.89067    0.73255    0.94400    1.000
    Si5538   Si       0.92103    0.77359    0.88374    1.000
    Si5539   Si       0.83520    0.81963    0.01194    1.000
    Si5540   Si       0.76048    0.79297    0.08699    1.000
    N5541    N        0.79084    0.81772    0.10273    1.000
    N5542    N        0.86322    0.79104    0.02783    1.000
    Si5543   Si       0.89969    0.80024    0.05008    1.000
    N5544    N        0.90310    0.78704    0.09240    1.000
    N5545    N        0.97384    0.79167    0.08478    1.000
    Si5546   Si       0.88072    0.81545    0.11511    1.000
    Si5547   Si       0.94140    0.77447    0.10923    1.000
    Si5548   Si       0.81204    0.80847    0.14064    1.000
    N5549    N        0.81126    0.79294    0.21625    1.000
    N5550    N        0.85488    0.79561    0.14303    1.000
    N5551    N        0.74731    0.79220    0.18636    1.000
    N5552    N        0.94675    0.78822    0.15006    1.000
    Si5553   Si       0.95179    0.80296    0.23575    1.000
    N5554    N        0.92317    0.82219    0.20652    1.000
    Si5555   Si       0.93639    0.82777    0.16560    1.000
    N5556    N        0.81551    0.79496    0.28420    1.000
    N5557    N        0.75488    0.79435    0.32934    1.000
    N5558    N        0.81582    0.78367    0.35369    1.000
    N5559    N        0.74887    0.80494    0.25914    1.000
    Si5560   Si       0.84006    0.78173    0.31823    1.000
    Si5561   Si       0.78461    0.82621    0.27343    1.000
    N5562    N        0.87629    0.80642    0.31577    1.000
    Si5563   Si       0.89700    0.80855    0.27820    1.000
    Si5564   Si       0.96925    0.81480    0.34856    1.000
    Si5565   Si       0.89596    0.81478    0.35382    1.000
    N5566    N        0.93455    0.78979    0.27281    1.000
    N5567    N        0.87192    0.79154    0.24784    1.000
    Si5568   Si       0.81102    0.77448    0.49190    1.000
    Si5569   Si       0.78468    0.80729    0.43229    1.000
    Si5570   Si       0.82478    0.81556    0.38092    1.000
    N5571    N        0.76218    0.78512    0.39961    1.000
    N5572    N        0.77777    0.79662    0.47409    1.000
    N5573    N        0.82631    0.80112    0.42222    1.000
    Si5574   Si       0.86249    0.80137    0.44862    1.000
    N5575    N        0.85130    0.79335    0.49086    1.000
    N5576    N        0.97358    0.79583    0.46049    1.000
    N5577    N        0.98157    0.81364    0.38890    1.000
    Si5578   Si       0.93195    0.78202    0.47288    1.000
    N5579    N        0.90648    0.77620    0.37401    1.000
    Si5580   Si       0.98602    0.78160    0.41739    1.000
    N5581    N        0.89885    0.77629    0.44561    1.000
    N5582    N        0.91854    0.81975    0.49519    1.000
    Si5583   Si       0.80954    0.78792    0.56730    1.000
    N5584    N        0.84736    0.77987    0.58645    1.000
    N5585    N        0.77382    0.77730    0.59036    1.000
    Si5586   Si       0.85598    0.81082    0.61471    1.000
    Si5587   Si       0.88295    0.80216    0.51829    1.000
    N5588    N        0.98292    0.80512    0.53084    1.000
    N5589    N        0.82020    0.83056    0.62593    1.000
    N5590    N        0.77759    0.80315    0.67345    1.000
    N5591    N        0.83796    0.82918    0.69683    1.000
    N5592    N        0.94862    0.81686    0.62973    1.000
    Si5593   Si       0.86897    0.80157    0.69566    1.000
    Si5594   Si       0.93709    0.80467    0.70309    1.000
    N5595    N        0.90061    0.80298    0.72825    1.000
    Si5596   Si       0.96451    0.77412    0.63980    1.000
    N5597    N        0.88044    0.80441    0.65227    1.000
    N5598    N        0.97505    0.80709    0.72404    1.000
    N5599    N        0.77473    0.81105    0.78364    1.000
    Si5600   Si       0.79041    0.81867    0.82556    1.000
    N5601    N        0.83385    0.82685    0.82592    1.000
    N5602    N        0.78951    0.77909    0.84811    1.000
    Si5603   Si       0.74981    0.77763    0.77660    1.000
    N5604    N        0.90165    0.79051    0.79608    1.000
    Si5605   Si       0.87493    0.80720    0.83224    1.000
    N5606    N        0.96436    0.81773    0.82030    1.000
    Si5607   Si       0.94207    0.78030    0.81253    1.000
    Si5608   Si       0.89837    0.82368    0.76663    1.000
    N5609    N        0.82266    0.79162    0.97963    1.000
    N5610    N        0.83407    0.79272    0.90094    1.000
    Si5611   Si       0.77986    0.78945    0.98062    1.000
    N5612    N        0.76202    0.82829    0.98061    1.000
    Si5613   Si       0.73884    0.77690    0.92121    1.000
    N5614    N        0.89183    0.80169    0.87129    1.000
    N5615    N        0.94397    0.82593    0.98162    1.000
    Si5616   Si       0.92386    0.80670    0.94741    1.000
    Si5617   Si       0.86640    0.81984    0.89893    1.000
    Si5618   Si       0.98556    0.81885    0.99114    1.000
    N5619    N        0.88789    0.83043    0.93683    1.000
    N5620    N        0.94655    0.79633    0.91201    1.000
    Si5621   Si       0.77194    0.85689    0.01249    1.000
    Si5622   Si       0.81098    0.84583    0.07645    1.000
    N5623    N        0.78121    0.88055    0.08265    1.000
    N5624    N        0.85356    0.84011    0.08830    1.000
    Si5625   Si       0.74310    0.88392    0.10185    1.000
    N5626    N        0.80194    0.83536    0.03452    1.000
    N5627    N        0.90296    0.84292    0.04392    1.000
    Si5628   Si       0.87565    0.86894    0.06565    1.000
    Si5629   Si       0.92501    0.85350    0.00909    1.000
    N5630    N        0.96431    0.87992    0.10637    1.000
    N5631    N        0.95363    0.88293    0.02462    1.000
    Si5632   Si       0.97191    0.88866    0.06481    1.000
    Si5633   Si       0.81876    0.83631    0.20941    1.000
    Si5634   Si       0.79627    0.88337    0.15591    1.000
    N5635    N        0.75343    0.87606    0.14328    1.000
    N5636    N        0.80679    0.84228    0.16590    1.000
    N5637    N        0.85910    0.85192    0.21034    1.000
    N5638    N        0.79079    0.85382    0.23851    1.000
    Si5639   Si       0.92340    0.88063    0.12088    1.000
    N5640    N        0.93020    0.88732    0.21776    1.000
    N5641    N        0.97423    0.85002    0.16980    1.000
    Si5642   Si       0.96406    0.88181    0.24483    1.000
    N5643    N        0.90911    0.84280    0.13349    1.000
    Si5644   Si       0.90046    0.85378    0.22421    1.000
    Si5645   Si       0.98773    0.89107    0.18296    1.000
    N5646    N        0.77497    0.85467    0.30491    1.000
    Si5647   Si       0.76022    0.83643    0.34123    1.000
    N5648    N        0.79538    0.84524    0.36861    1.000
    N5649    N        0.90345    0.84982    0.26652    1.000
    Si5650   Si       0.92643    0.88136    0.35682    1.000
    N5651    N        0.93216    0.83799    0.34934    1.000
    N5652    N        0.97336    0.84025    0.24942    1.000
    Si5653   Si       0.90987    0.88821    0.28607    1.000
    N5654    N        0.89587    0.89060    0.32742    1.000
    Si5655   Si       0.77710    0.87261    0.47165    1.000
    N5656    N        0.77951    0.85220    0.43135    1.000
    Si5657   Si       0.79313    0.87663    0.39943    1.000
    N5658    N        0.86349    0.83531    0.37586    1.000
    N5659    N        0.83257    0.89100    0.40784    1.000
    N5660    N        0.87346    0.84315    0.44255    1.000
    Si5661   Si       0.97779    0.83922    0.45609    1.000
    N5662    N        0.94298    0.85546    0.43974    1.000
    Si5663   Si       0.90825    0.85414    0.46646    1.000
    Si5664   Si       0.86775    0.86531    0.40689    1.000
    N5665    N        0.90369    0.88577    0.39447    1.000
    N5666    N        0.97521    0.86300    0.49386    1.000
    Si5667   Si       0.78980    0.84487    0.59680    1.000
    Si5668   Si       0.83150    0.85727    0.53460    1.000
    N5669    N        0.74612    0.83990    0.60175    1.000
    N5670    N        0.80996    0.86226    0.49763    1.000
    N5671    N        0.80747    0.83076    0.55991    1.000
    N5672    N        0.79558    0.88861    0.59861    1.000
    N5673    N        0.89080    0.83597    0.60167    1.000
    N5674    N        0.87118    0.84001    0.53771    1.000
    Si5675   Si       0.89769    0.85958    0.56541    1.000
    N5676    N        0.93947    0.85579    0.55375    1.000
    Si5677   Si       0.97288    0.87659    0.57550    1.000
    Si5678   Si       0.95355    0.83540    0.51933    1.000
    N5679    N        0.79649    0.87970    0.66603    1.000
    Si5680   Si       0.84285    0.85652    0.72956    1.000
    N5681    N        0.79999    0.86409    0.73492    1.000
    Si5682   Si       0.80549    0.83666    0.66705    1.000
    N5683    N        0.90158    0.88207    0.64791    1.000
    Si5684   Si       0.90463    0.88063    0.69099    1.000
    Si5685   Si       0.91146    0.83808    0.64192    1.000
    N5686    N        0.92580    0.84213    0.68536    1.000
    N5687    N        0.87086    0.88748    0.71893    1.000
    N5688    N        0.97991    0.87843    0.72609    1.000
    Si5689   Si       0.83761    0.86099    0.80026    1.000
    Si5690   Si       0.77476    0.85397    0.76755    1.000
    N5691    N        0.79421    0.87317    0.80108    1.000
    N5692    N        0.75915    0.83568    0.84914    1.000
    N5693    N        0.85940    0.84098    0.76611    1.000
    Si5694   Si       0.87920    0.87380    0.85162    1.000
    Si5695   Si       0.93964    0.85295    0.81232    1.000
    N5696    N        0.89911    0.84523    0.82786    1.000
    N5697    N        0.93394    0.84763    0.76890    1.000
    Si5698   Si       0.97327    0.84381    0.75164    1.000
    Si5699   Si       0.75453    0.84590    0.94137    1.000
    N5700    N        0.85159    0.85836    0.88080    1.000
    N5701    N        0.78976    0.86075    0.92218    1.000
    Si5702   Si       0.82106    0.88050    0.90042    1.000
    N5703    N        0.84665    0.85547    0.99223    1.000
    N5704    N        0.90612    0.88416    0.98497    1.000
    Si5705   Si       0.87496    0.86537    0.95950    1.000
    Si5706   Si       0.81385    0.90724    0.08375    1.000
    N5707    N        0.79021    0.89372    0.99874    1.000
    Si5708   Si       0.83234    0.89263    0.01237    1.000
    N5709    N        0.84009    0.89003    0.05338    1.000
    Si5710   Si       0.91818    0.93893    0.06787    1.000
    N5711    N        0.89460    0.90229    0.09016    1.000
    N5712    N        0.96098    0.93066    0.06763    1.000
    N5713    N        0.90769    0.93821    0.02627    1.000
    Si5714   Si       0.93462    0.91454    0.00011    1.000
    N5715    N        0.79813    0.90580    0.19268    1.000
    N5716    N        0.82752    0.90294    0.12693    1.000
    Si5717   Si       0.80461    0.94870    0.19675    1.000
    Si5718   Si       0.78315    0.89528    0.23274    1.000
    Si5719   Si       0.86979    0.91791    0.12731    1.000
    N5720    N        0.96398    0.92811    0.17482    1.000
    N5721    N        0.90505    0.90588    0.15135    1.000
    N5722    N        0.90072    0.94718    0.20780    1.000
    Si5723   Si       0.92315    0.91739    0.18828    1.000
    Si5724   Si       0.87493    0.94629    0.24398    1.000
    N5725    N        0.79298    0.91777    0.27099    1.000
    N5726    N        0.75043    0.91579    0.33047    1.000
    Si5727   Si       0.78417    0.89734    0.30987    1.000
    N5728    N        0.82233    0.89882    0.32922    1.000
    Si5729   Si       0.86079    0.91371    0.31784    1.000
    N5730    N        0.87738    0.91770    0.27556    1.000
    N5731    N        0.96339    0.90515    0.35682    1.000
    Si5732   Si       0.98086    0.93020    0.29972    1.000
    N5733    N        0.95119    0.90270    0.28222    1.000
    Si5734   Si       0.96349    0.94928    0.36800    1.000
    N5735    N        0.84052    0.93469    0.46616    1.000
    N5736    N        0.75909    0.90493    0.39318    1.000
    N5737    N        0.77951    0.91563    0.45660    1.000
    Si5738   Si       0.83996    0.93136    0.42291    1.000
    Si5739   Si       0.77129    0.93674    0.41954    1.000
    Si5740   Si       0.80286    0.93933    0.48830    1.000
    Si5741   Si       0.98388    0.94189    0.42915    1.000
    Si5742   Si       0.88077    0.93094    0.48058    1.000
    Si5743   Si       0.92734    0.89661    0.42925    1.000
    N5744    N        0.89990    0.89610    0.46412    1.000
    N5745    N        0.94306    0.93508    0.41861    1.000
    Si5746   Si       0.79852    0.91221    0.56181    1.000
    N5747    N        0.78067    0.92172    0.52158    1.000
    N5748    N        0.83752    0.89922    0.54865    1.000
    N5749    N        0.73810    0.91065    0.57015    1.000
    Si5750   Si       0.74081    0.93298    0.53485    1.000
    Si5751   Si       0.98757    0.93388    0.61636    1.000
    Si5752   Si       0.87096    0.92803    0.55765    1.000
    N5753    N        0.89551    0.89960    0.57908    1.000
    N5754    N        0.95873    0.90197    0.60514    1.000
    Si5755   Si       0.97800    0.94298    0.53663    1.000
    Si5756   Si       0.91617    0.91004    0.61702    1.000
    N5757    N        0.88949    0.94148    0.52080    1.000
    N5758    N        0.96037    0.93410    0.49783    1.000
    N5759    N        0.79842    0.93335    0.70806    1.000
    N5760    N        0.74788    0.92613    0.64106    1.000
    N5761    N        0.82092    0.94254    0.64225    1.000
    Si5762   Si       0.78951    0.91018    0.63642    1.000
    Si5763   Si       0.78415    0.89189    0.70511    1.000
    Si5764   Si       0.88240    0.92794    0.72831    1.000
    Si5765   Si       0.95723    0.91463    0.73205    1.000
    N5766    N        0.92258    0.92012    0.70521    1.000
    N5767    N        0.97826    0.94152    0.65998    1.000
    Si5768   Si       0.93786    0.95318    0.67546    1.000
    N5769    N        0.91714    0.94929    0.63658    1.000
    N5770    N        0.75414    0.92088    0.83486    1.000
    N5771    N        0.76192    0.91319    0.76186    1.000
    Si5772   Si       0.78062    0.91295    0.80293    1.000
    Si5773   Si       0.85387    0.93506    0.80697    1.000
    N5774    N        0.85658    0.89399    0.82047    1.000
    N5775    N        0.81288    0.94291    0.79339    1.000
    N5776    N        0.94737    0.92657    0.77154    1.000
    Si5777   Si       0.93527    0.92038    0.85510    1.000
    Si5778   Si       0.97629    0.91785    0.80346    1.000
    N5779    N        0.87945    0.94015    0.77061    1.000
    N5780    N        0.95483    0.88904    0.82978    1.000
    N5781    N        0.91363    0.94766    0.82981    1.000
    Si5782   Si       0.75953    0.92012    0.87815    1.000
    N5783    N        0.80467    0.91591    0.88163    1.000
    Si5784   Si       0.83380    0.93074    0.95258    1.000
    Si5785   Si       0.77316    0.93146    0.98590    1.000
    N5786    N        0.84605    0.93200    0.99371    1.000
    N5787    N        0.79298    0.94537    0.95039    1.000
    N5788    N        0.85200    0.89255    0.93460    1.000
    N5789    N        0.90100    0.90226    0.87458    1.000
    N5790    N        0.90527    0.93563    0.93857    1.000
    N5791    N        0.95894    0.93258    0.89360    1.000
    Si5792   Si       0.94861    0.93909    0.93454    1.000
    N5793    N        0.96584    0.92490    0.97141    1.000
    Si5794   Si       0.88041    0.91551    0.91103    1.000
    N5795    N        0.84773    0.98578    0.03555    1.000
    Si5796   Si       0.80730    0.97629    0.04841    1.000
    N5797    N        0.77792    0.96256    0.01663    1.000
    Si5798   Si       0.75089    0.99389    0.02924    1.000
    N5799    N        0.74719    0.99513    0.11074    1.000
    N5800    N        0.80942    0.94948    0.08236    1.000
    N5801    N        0.91208    0.97937    0.08415    1.000
    Si5802   Si       0.87181    0.96064    0.00994    1.000
    N5803    N        0.96769    0.00036    0.00182    1.000
    N5804    N        0.98120    0.97538    0.11784    1.000
    Si5805   Si       0.82065    0.96881    0.11883    1.000
    Si5806   Si       0.84812    0.99947    0.23390    1.000
    N5807    N        0.79953    0.96607    0.15671    1.000
    N5808    N        0.77314    0.96628    0.22479    1.000
    Si5809   Si       0.75807    0.98122    0.15060    1.000
    N5810    N        0.83462    0.95558    0.22944    1.000
    Si5811   Si       0.77266    0.00794    0.21229    1.000
    N5812    N        0.86303    0.96073    0.12743    1.000
    Si5813   Si       0.96731    0.96759    0.15784    1.000
    N5814    N        0.94386    0.99887    0.22010    1.000
    Si5815   Si       0.89645    0.98645    0.12369    1.000
    Si5816   Si       0.91119    0.98592    0.19467    1.000
    N5817    N        0.92582    0.98086    0.15345    1.000
    N5818    N        0.82466    0.99498    0.28209    1.000
    Si5819   Si       0.79671    0.96259    0.26559    1.000
    N5820    N        0.75311    0.96962    0.28431    1.000
    N5821    N        0.86468    0.95373    0.33026    1.000
    Si5822   Si       0.86387    0.98610    0.30193    1.000
    N5823    N        0.96938    0.96312    0.32378    1.000
    N5824    N        0.88295    0.98673    0.26222    1.000
    Si5825   Si       0.93910    0.99588    0.33103    1.000
    Si5826   Si       0.88234    0.97517    0.36524    1.000
    N5827    N        0.92717    0.97008    0.36738    1.000
    Si5828   Si       0.98731    0.99306    0.28749    1.000
    N5829    N        0.94579    0.00737    0.28741    1.000
    N5830    N        0.89432    0.00691    0.32739    1.000
    N5831    N        0.80932    0.95489    0.40630    1.000
    N5832    N        0.74674    0.97068    0.43147    1.000
    Si5833   Si       0.81904    0.99661    0.39971    1.000
    N5834    N        0.85516    0.00958    0.37785    1.000
    N5835    N        0.87394    0.95221    0.40501    1.000
    N5836    N        0.90503    0.96551    0.46461    1.000
    Si5837   Si       0.91387    0.96555    0.42175    1.000
    Si5838   Si       0.82650    0.96788    0.60740    1.000
    Si5839   Si       0.77233    0.00105    0.52387    1.000
    N5840    N        0.79915    0.95203    0.57853    1.000
    N5841    N        0.80261    0.98318    0.49985    1.000
    N5842    N        0.81772    0.00982    0.61484    1.000
    N5843    N        0.86788    0.96135    0.58994    1.000
    Si5844   Si       0.96150    0.99699    0.57529    1.000
    N5845    N        0.94524    0.96781    0.54781    1.000
    Si5846   Si       0.92752    0.96454    0.50654    1.000
    Si5847   Si       0.89728    0.98146    0.61722    1.000
    N5848    N        0.92979    0.00780    0.60313    1.000
    N5849    N        0.93647    0.00719    0.49716    1.000
    Si5850   Si       0.82662    0.95734    0.68347    1.000
    N5851    N        0.82319    0.00161    0.68376    1.000
    Si5852   Si       0.76940    0.95297    0.74025    1.000
    N5853    N        0.86491    0.95714    0.70301    1.000
    N5854    N        0.79673    0.98661    0.74412    1.000
    N5855    N        0.87481    0.00389    0.64934    1.000
    N5856    N        0.92530    0.98847    0.69747    1.000
    Si5857   Si       0.87969    0.99698    0.69119    1.000
    Si5858   Si       0.81145    0.98568    0.78634    1.000
    N5859    N        0.85176    0.95908    0.84380    1.000
    Si5860   Si       0.74618    0.00223    0.79953    1.000
    N5861    N        0.78405    0.99670    0.81883    1.000
    Si5862   Si       0.88981    0.97639    0.85289    1.000
    N5863    N        0.92470    0.99456    0.77331    1.000
    Si5864   Si       0.91907    0.95544    0.78610    1.000
    N5865    N        0.97907    0.95208    0.83088    1.000
    N5866    N        0.85318    0.94981    0.91683    1.000
    Si5867   Si       0.77623    0.97888    0.92722    1.000
    N5868    N        0.80177    0.98531    0.89134    1.000
    Si5869   Si       0.82951    0.95467    0.88042    1.000
    N5870    N        0.74628    0.95615    0.90236    1.000
    Si5871   Si       0.99100    0.95548    0.87413    1.000
    N5872    N        0.95055    0.98414    0.94253    1.000
    Si5873   Si       0.94417    0.00445    0.90383    1.000
    Si5874   Si       0.98663    0.00042    0.96226    1.000
    Si5875   Si       0.92720    0.00178    0.98640    1.000
    Si5876   Si       0.88359    0.97827    0.93236    1.000
    N5877    N        0.88775    0.98610    0.97577    1.000
    N5878    N        0.90741    0.98426    0.89114    1.000
    N5879    N        0.98082    0.99612    0.88370    1.000
