# CIF file generated by openbabel 3.1.1, see https://openbabel.org
data_I
_chemical_name_common '3.01-63.aims'
_cell_length_a 39.9275
_cell_length_b 39.9275
_cell_length_c 39.9275
_cell_angle_alpha 90
_cell_angle_beta 90
_cell_angle_gamma 90
loop_
    _atom_site_label
    _atom_site_type_symbol
    _atom_site_fract_x
    _atom_site_fract_y
    _atom_site_fract_z
    _atom_site_occupancy
    Si0      Si       0.07155    0.02017    0.03304    1.000
    N1       N        0.08939    0.04852    0.05865    1.000
    N2       N        0.04491    0.04854    0.00916    1.000
    N3       N        0.11159    0.06356    0.99915    1.000
    N4       N        0.22376    0.01784    0.04859    1.000
    N5       N        0.15484    0.04212    0.05968    1.000
    Si6      Si       0.19300    0.04534    0.03812    1.000
    N7       N        0.21911    0.02991    0.11430    1.000
    Si8      Si       0.14960    0.00971    0.08889    1.000
    N9       N        0.10106    0.05580    0.17275    1.000
    N10      N        0.99821    0.03547    0.23421    1.000
    Si11     Si       0.04842    0.02500    0.14374    1.000
    N12      N        0.06655    0.02871    0.24040    1.000
    Si13     Si       0.08611    0.05837    0.21449    1.000
    N14      N        0.03227    0.01141    0.18129    1.000
    N15      N        0.18362    0.01993    0.24900    1.000
    Si16     Si       0.03050    0.00848    0.22542    1.000
    N17      N        0.14979    0.01990    0.13232    1.000
    Si18     Si       0.18639    0.03910    0.14214    1.000
    Si19     Si       0.11654    0.01711    0.16157    1.000
    Si20     Si       0.14157    0.03037    0.24173    1.000
    N21      N        0.19781    0.03768    0.18400    1.000
    N22      N        0.12936    0.00891    0.20602    1.000
    Si23     Si       0.00639    0.06667    0.00051    1.000
    N24      N        0.06794    0.03331    0.31948    1.000
    Si25     Si       0.08075    0.01768    0.28048    1.000
    Si26     Si       0.99267    0.02316    0.37367    1.000
    Si27     Si       0.05442    0.06320    0.34510    1.000
    N28      N        0.19738    0.05039    0.31908    1.000
    Si29     Si       0.19738    0.01950    0.29003    1.000
    N30      N        0.12298    0.01302    0.27635    1.000
    N31      N        0.15045    0.06250    0.36638    1.000
    N32      N        0.13314    0.02460    0.48527    1.000
    N33      N        0.03187    0.04454    0.37678    1.000
    N34      N        0.02504    0.04283    0.44449    1.000
    N35      N        0.09127    0.04493    0.41094    1.000
    Si36     Si       0.10553    0.03947    0.45275    1.000
    Si37     Si       0.05050    0.05710    0.41271    1.000
    Si38     Si       0.99937    0.00863    0.44692    1.000
    N39      N        0.21194    0.06592    0.39996    1.000
    Si40     Si       0.23259    0.02587    0.39996    1.000
    N41      N        0.14961    0.05449    0.43199    1.000
    Si42     Si       0.17403    0.04595    0.39800    1.000
    N43      N        0.02434    0.04353    0.51443    1.000
    Si44     Si       0.04316    0.05368    0.55260    1.000
    N45      N        0.03881    0.01937    0.57967    1.000
    Si46     Si       0.11076    0.04019    0.56086    1.000
    N47      N        0.10577    0.01500    0.59616    1.000
    Si48     Si       0.01906    0.01071    0.61718    1.000
    N49      N        0.09105    0.00882    0.53873    1.000
    Si50     Si       0.18649    0.03095    0.56603    1.000
    N51      N        0.15020    0.04781    0.54654    1.000
    N52      N        0.17442    0.02117    0.60804    1.000
    N53      N        0.19990    0.05084    0.50002    1.000
    Si54     Si       0.15491    0.05579    0.50458    1.000
    Si55     Si       0.21809    0.01092    0.50118    1.000
    N56      N        0.08983    0.03156    0.69484    1.000
    N57      N        0.02718    0.05774    0.71290    1.000
    Si58     Si       0.03891    0.02270    0.68792    1.000
    Si59     Si       0.09417    0.02347    0.64341    1.000
    N60      N        0.05033    0.01827    0.64451    1.000
    N61      N        0.99366    0.01722    0.67828    1.000
    N62      N        0.11581    0.06017    0.64607    1.000
    Si63     Si       0.20629    0.06312    0.70383    1.000
    N64      N        0.17447    0.05941    0.67303    1.000
    N65      N        0.21566    0.02152    0.71168    1.000
    Si66     Si       0.13022    0.05407    0.68654    1.000
    Si67     Si       0.18855    0.05383    0.63118    1.000
    N68      N        0.14500    0.03092    0.72199    1.000
    N69      N        0.21266    0.06577    0.56841    1.000
    Si70     Si       0.14499    0.06966    0.74296    1.000
    Si71     Si       0.09845    0.03767    0.79327    1.000
    N72      N        0.09247    0.03915    0.83661    1.000
    N73      N        0.06087    0.05017    0.77670    1.000
    N74      N        0.00230    0.04895    0.83704    1.000
    Si75     Si       0.02984    0.03332    0.75027    1.000
    N76      N        0.99162    0.03076    0.77142    1.000
    Si77     Si       0.22206    0.05098    0.82897    1.000
    N78      N        0.20107    0.03963    0.86450    1.000
    N79      N        0.15976    0.01874    0.81736    1.000
    Si80     Si       0.15779    0.06233    0.81383    1.000
    N81      N        0.23749    0.01457    0.81512    1.000
    N82      N        0.12771    0.06786    0.78210    1.000
    Si83     Si       0.10259    0.02860    0.87840    1.000
    N84      N        0.06659    0.03706    0.94118    1.000
    Si85     Si       0.09682    0.03061    0.97306    1.000
    Si86     Si       0.00275    0.06209    0.87998    1.000
    N87      N        0.01339    0.01950    0.90001    1.000
    N88      N        0.18484    0.04959    0.99514    1.000
    N89      N        0.19810    0.02257    0.93019    1.000
    N90      N        0.13492    0.03077    0.95321    1.000
    N91      N        0.14212    0.01780    0.88753    1.000
    Si92     Si       0.20980    0.02159    0.97175    1.000
    Si93     Si       0.20978    0.05547    0.90357    1.000
    Si94     Si       0.14987    0.06685    0.97279    1.000
    N95      N        0.09355    0.07098    0.89106    1.000
    N96      N        0.04415    0.11107    0.08479    1.000
    N97      N        0.02228    0.10474    0.01249    1.000
    Si98     Si       0.07678    0.08485    0.07975    1.000
    Si99     Si       0.01674    0.09300    0.11437    1.000
    N100     N        0.10809    0.09062    0.10881    1.000
    N101     N        0.08090    0.10564    0.03820    1.000
    Si102    Si       0.06834    0.08524    0.00123    1.000
    Si103    Si       0.14323    0.11049    0.12592    1.000
    N104     N        0.20909    0.08508    0.04731    1.000
    N105     N        0.14578    0.10727    0.03413    1.000
    Si106    Si       0.18068    0.11360    0.06068    1.000
    Si107    Si       0.23075    0.10365    0.01439    1.000
    N108     N        0.17768    0.12505    0.10160    1.000
    Si109    Si       0.12513    0.06803    0.03983    1.000
    N110     N        0.05013    0.08335    0.20335    1.000
    Si111    Si       0.08366    0.08315    0.14419    1.000
    Si112    Si       0.01766    0.07402    0.22928    1.000
    Si113    Si       0.03790    0.11899    0.17846    1.000
    N114     N        0.00933    0.11993    0.14696    1.000
    N115     N        0.07424    0.12605    0.15825    1.000
    Si116    Si       0.18526    0.07774    0.19066    1.000
    N117     N        0.17248    0.08466    0.14911    1.000
    N118     N        0.12259    0.06951    0.23849    1.000
    N119     N        0.18024    0.09240    0.23146    1.000
    Si120    Si       0.20667    0.11622    0.13706    1.000
    N121     N        0.22144    0.10326    0.18473    1.000
    Si122    Si       0.20864    0.12596    0.22158    1.000
    N123     N        0.04738    0.06518    0.12836    1.000
    N124     N        0.02210    0.08721    0.32682    1.000
    N125     N        0.01479    0.10538    0.26101    1.000
    N126     N        0.08837    0.08873    0.35669    1.000
    Si127    Si       0.10297    0.11249    0.32562    1.000
    Si128    Si       0.03244    0.11679    0.29943    1.000
    N129     N        0.07385    0.11962    0.29564    1.000
    N130     N        0.13675    0.09261    0.30519    1.000
    Si131    Si       0.14598    0.10119    0.26159    1.000
    Si132    Si       0.16817    0.08074    0.33164    1.000
    N133     N        0.18800    0.11860    0.33903    1.000
    Si134    Si       0.23039    0.11998    0.34692    1.000
    N135     N        0.04532    0.10061    0.41352    1.000
    N136     N        0.01382    0.10547    0.47915    1.000
    Si137    Si       0.00189    0.11519    0.41216    1.000
    N138     N        0.07752    0.07009    0.47499    1.000
    Si139    Si       0.03431    0.06754    0.47888    1.000
    Si140    Si       0.11519    0.07398    0.38902    1.000
    N141     N        0.11756    0.10840    0.41593    1.000
    N142     N        0.18556    0.11519    0.43896    1.000
    Si143    Si       0.14901    0.09731    0.44669    1.000
    Si144    Si       0.22220    0.10304    0.41970    1.000
    N145     N        0.14353    0.09431    0.48975    1.000
    N146     N        0.01630    0.08432    0.56635    1.000
    Si147    Si       0.08830    0.11460    0.56687    1.000
    N148     N        0.09062    0.11441    0.61126    1.000
    N149     N        0.08241    0.07403    0.55301    1.000
    N150     N        0.24064    0.12102    0.58110    1.000
    N151     N        0.18912    0.11580    0.53404    1.000
    N152     N        0.16862    0.08989    0.61280    1.000
    Si153    Si       0.21691    0.08351    0.52750    1.000
    Si154    Si       0.19355    0.10907    0.57785    1.000
    N155     N        0.24205    0.08560    0.69841    1.000
    Si156    Si       0.01551    0.09491    0.69449    1.000
    N157     N        0.05169    0.11044    0.67607    1.000
    Si158    Si       0.07847    0.11266    0.70860    1.000
    N159     N        0.99851    0.12836    0.71654    1.000
    N160     N        0.18655    0.08258    0.73691    1.000
    Si161    Si       0.12656    0.09691    0.62692    1.000
    N162     N        0.12062    0.09178    0.71317    1.000
    N163     N        0.23079    0.06762    0.63395    1.000
    N164     N        0.06995    0.10412    0.82547    1.000
    N165     N        0.01324    0.09788    0.78629    1.000
    Si166    Si       0.09813    0.08268    0.85073    1.000
    Si167    Si       0.05614    0.09142    0.78641    1.000
    N168     N        0.05837    0.11359    0.74740    1.000
    Si169    Si       0.20360    0.10318    0.77214    1.000
    N170     N        0.14214    0.08674    0.84660    1.000
    N171     N        0.19797    0.07161    0.80019    1.000
    Si172    Si       0.17002    0.10643    0.87163    1.000
    N173     N        0.20181    0.12634    0.84981    1.000
    N174     N        0.98707    0.07924    0.96030    1.000
    N175     N        0.03237    0.08789    0.89906    1.000
    Si176    Si       0.06476    0.07668    0.92470    1.000
    N177     N        0.07412    0.10115    0.96027    1.000
    N178     N        0.18567    0.09093    0.90935    1.000
    Si179    Si       0.01864    0.12908    0.88121    1.000
    Si180    Si       0.16953    0.12874    0.92931    1.000
    N181     N        0.14502    0.10834    0.96034    1.000
    N182     N        0.00707    0.15383    0.04458    1.000
    N183     N        0.07296    0.16776    0.04384    1.000
    Si184    Si       0.04532    0.13261    0.04518    1.000
    Si185    Si       0.99077    0.17779    0.07754    1.000
    Si186    Si       0.11055    0.13814    0.03750    1.000
    Si187    Si       0.22787    0.16938    0.03723    1.000
    N188     N        0.12499    0.15901    0.07471    1.000
    N189     N        0.19067    0.15539    0.05002    1.000
    Si190    Si       0.16694    0.16767    0.08722    1.000
    Si191    Si       0.16001    0.12812    0.99854    1.000
    N192     N        0.12284    0.15537    0.99885    1.000
    Si193    Si       0.99335    0.13031    0.22963    1.000
    N194     N        0.02551    0.15007    0.20814    1.000
    Si195    Si       0.09890    0.16490    0.15591    1.000
    N196     N        0.08820    0.18321    0.19416    1.000
    Si197    Si       0.16972    0.16909    0.16942    1.000
    N198     N        0.20571    0.15868    0.14829    1.000
    N199     N        0.13770    0.14552    0.15158    1.000
    Si200    Si       0.09119    0.18246    0.08151    1.000
    N201     N        0.18069    0.15607    0.20889    1.000
    N202     N        0.01658    0.15590    0.30596    1.000
    Si203    Si       0.09904    0.18250    0.36014    1.000
    N204     N        0.12124    0.15119    0.33815    1.000
    N205     N        0.15257    0.14428    0.27157    1.000
    Si206    Si       0.15875    0.14317    0.31485    1.000
    N207     N        0.18054    0.18054    0.31878    1.000
    Si208    Si       0.21962    0.18112    0.30213    1.000
    Si209    Si       0.03089    0.17220    0.39695    1.000
    N210     N        0.07014    0.15942    0.38607    1.000
    N211     N        0.07329    0.14933    0.45482    1.000
    N212     N        0.01136    0.15344    0.43019    1.000
    Si213    Si       0.03176    0.14325    0.46804    1.000
    Si214    Si       0.08030    0.12873    0.41814    1.000
    N215     N        0.23295    0.13443    0.38974    1.000
    N216     N        0.16282    0.17415    0.41881    1.000
    N217     N        0.16444    0.15930    0.48681    1.000
    N218     N        0.22404    0.17458    0.44405    1.000
    Si219    Si       0.18599    0.15821    0.45000    1.000
    Si220    Si       0.07608    0.18341    0.48153    1.000
    Si221    Si       0.16861    0.17475    0.24491    1.000
    N222     N        0.05480    0.14509    0.56983    1.000
    N223     N        0.03737    0.17302    0.49885    1.000
    N224     N        0.99225    0.14979    0.54919    1.000
    Si225    Si       0.06468    0.18425    0.59635    1.000
    N226     N        0.01617    0.13119    0.62149    1.000
    Si227    Si       0.01466    0.12680    0.57886    1.000
    Si228    Si       0.11816    0.17968    0.55011    1.000
    N229     N        0.11873    0.13587    0.54455    1.000
    N230     N        0.18470    0.14791    0.59649    1.000
    Si231    Si       0.15173    0.12910    0.51493    1.000
    N232     N        0.06623    0.17528    0.63871    1.000
    N233     N        0.09660    0.15144    0.69982    1.000
    Si234    Si       0.05694    0.13012    0.63561    1.000
    N235     N        0.14125    0.12699    0.65540    1.000
    N236     N        0.16428    0.15563    0.71179    1.000
    Si237    Si       0.20150    0.16853    0.69123    1.000
    N238     N        0.23379    0.15700    0.71759    1.000
    N239     N        0.21199    0.14421    0.65686    1.000
    Si240    Si       0.13565    0.13099    0.69585    1.000
    Si241    Si       0.17853    0.12890    0.63505    1.000
    N242     N        0.01712    0.15564    0.84380    1.000
    Si243    Si       0.06013    0.14477    0.83778    1.000
    N244     N        0.02483    0.17116    0.76323    1.000
    N245     N        0.07812    0.16994    0.80836    1.000
    Si246    Si       0.01543    0.12933    0.75676    1.000
    Si247    Si       0.18576    0.15396    0.81829    1.000
    N248     N        0.14798    0.16733    0.83071    1.000
    N249     N        0.18315    0.13935    0.77789    1.000
    Si250    Si       0.17037    0.17266    0.75376    1.000
    N251     N        0.09639    0.16746    0.94353    1.000
    N252     N        0.00540    0.14909    0.91789    1.000
    N253     N        0.06366    0.14598    0.88005    1.000
    Si254    Si       0.07949    0.17680    0.90416    1.000
    Si255    Si       0.10519    0.13095    0.96320    1.000
    N256     N        0.17981    0.16719    0.94623    1.000
    Si257    Si       0.14545    0.17781    0.87364    1.000
    N258     N        0.14762    0.13974    0.89372    1.000
    Si259    Si       0.21494    0.16491    0.97402    1.000
    N260     N        0.21398    0.18651    0.82473    1.000
    Si261    Si       0.11792    0.18621    0.80530    1.000
    N262     N        0.20203    0.12699    0.98887    1.000
    N263     N        0.02873    0.22482    0.02549    1.000
    Si264    Si       0.06935    0.20876    0.03006    1.000
    N265     N        0.09751    0.22053    0.06268    1.000
    N266     N        0.02391    0.20330    0.09129    1.000
    Si267    Si       0.01016    0.23657    0.06168    1.000
    N268     N        0.14488    0.21005    0.23433    1.000
    N269     N        0.17805    0.20681    0.10299    1.000
    Si270    Si       0.21866    0.21990    0.09007    1.000
    N271     N        0.22152    0.19694    0.00407    1.000
    Si272    Si       0.22603    0.23815    0.01996    1.000
    Si273    Si       0.04682    0.21208    0.12762    1.000
    N274     N        0.03178    0.21926    0.22469    1.000
    N275     N        0.02631    0.19821    0.16220    1.000
    N276     N        0.08252    0.18780    0.12410    1.000
    N277     N        0.23990    0.22144    0.13179    1.000
    Si278    Si       0.15998    0.23106    0.13458    1.000
    N279     N        0.14575    0.20539    0.16719    1.000
    Si280    Si       0.11723    0.21511    0.20100    1.000
    Si281    Si       0.04707    0.18620    0.20130    1.000
    Si282    Si       0.24383    0.18004    0.14744    1.000
    N283     N        0.01217    0.22551    0.30137    1.000
    Si284    Si       0.03773    0.22747    0.26658    1.000
    N285     N        0.06692    0.20176    0.33550    1.000
    Si286    Si       0.08416    0.23495    0.31585    1.000
    N287     N        0.08101    0.22459    0.27538    1.000
    Si288    Si       0.02426    0.19251    0.32724    1.000
    N289     N        0.00401    0.18824    0.36559    1.000
    Si290    Si       0.16426    0.21974    0.32657    1.000
    N291     N        0.12345    0.22953    0.33503    1.000
    N292     N        0.17923    0.22366    0.36564    1.000
    N293     N        0.20961    0.18273    0.26003    1.000
    Si294    Si       0.10810    0.23909    0.49112    1.000
    N295     N        0.11097    0.21482    0.39344    1.000
    N296     N        0.03593    0.21321    0.41369    1.000
    Si297    Si       0.00293    0.22578    0.38816    1.000
    N298     N        0.08485    0.22058    0.45849    1.000
    Si299    Si       0.07596    0.22535    0.41765    1.000
    Si300    Si       0.23933    0.20809    0.46836    1.000
    N301     N        0.15011    0.23056    0.48887    1.000
    Si302    Si       0.15484    0.21175    0.40154    1.000
    N303     N        0.17955    0.24208    0.29131    1.000
    N304     N        0.03749    0.20690    0.57155    1.000
    N305     N        0.10404    0.20041    0.58381    1.000
    N306     N        0.10178    0.19648    0.51395    1.000
    Si307    Si       0.02090    0.18281    0.53775    1.000
    Si308    Si       0.12702    0.23153    0.60305    1.000
    Si309    Si       0.22496    0.22919    0.53996    1.000
    N310     N        0.22300    0.19955    0.56932    1.000
    Si311    Si       0.17015    0.19628    0.50801    1.000
    N312     N        0.15993    0.19111    0.54925    1.000
    N313     N        0.21210    0.20905    0.50222    1.000
    Si314    Si       0.18388    0.18883    0.58434    1.000
    N315     N        0.16614    0.21289    0.61593    1.000
    N316     N        0.03874    0.19886    0.69825    1.000
    N317     N        0.10667    0.21712    0.69924    1.000
    Si318    Si       0.01192    0.19947    0.73377    1.000
    Si319    Si       0.07658    0.18935    0.68158    1.000
    Si320    Si       0.10941    0.22015    0.74254    1.000
    N321     N        0.21520    0.20668    0.67005    1.000
    Si322    Si       0.18912    0.23272    0.64764    1.000
    N323     N        0.03493    0.21880    0.82393    1.000
    N324     N        0.06959    0.22296    0.75916    1.000
    Si325    Si       0.04928    0.19793    0.78824    1.000
    Si326    Si       0.00323    0.19502    0.84316    1.000
    N327     N        0.00663    0.23632    0.76230    1.000
    Si328    Si       0.11075    0.23813    0.86110    1.000
    N329     N        0.11558    0.22563    0.82129    1.000
    N330     N        0.13173    0.18765    0.76320    1.000
    Si331    Si       0.19633    0.21990    0.84469    1.000
    N332     N        0.19917    0.20261    0.74779    1.000
    Si333    Si       0.17687    0.20614    0.92578    1.000
    N334     N        0.14243    0.22052    0.94598    1.000
    N335     N        0.98771    0.20686    0.88464    1.000
    N336     N        0.99652    0.20928    0.95756    1.000
    N337     N        0.05024    0.20972    0.91343    1.000
    Si338    Si       0.01045    0.19495    0.91879    1.000
    Si339    Si       0.00983    0.23854    0.98848    1.000
    N340     N        0.11074    0.20081    0.88190    1.000
    N341     N        0.08808    0.22250    0.99347    1.000
    Si342    Si       0.11541    0.19593    0.97250    1.000
    N343     N        0.17871    0.20288    0.88065    1.000
    N344     N        0.20752    0.23430    0.93768    1.000
    N345     N        0.17790    0.24524    0.81262    1.000
    N346     N        0.08150    0.28215    0.06744    1.000
    N347     N        0.01106    0.27976    0.06933    1.000
    Si348    Si       0.04761    0.28659    0.09454    1.000
    Si349    Si       0.11444    0.25627    0.07763    1.000
    Si350    Si       0.18679    0.28255    0.04083    1.000
    N351     N        0.14268    0.27814    0.04888    1.000
    N352     N        0.20846    0.24976    0.06031    1.000
    N353     N        0.12861    0.25970    0.11852    1.000
    N354     N        0.20290    0.27033    0.99975    1.000
    N355     N        0.04602    0.25567    0.12686    1.000
    N356     N        0.02226    0.28156    0.19252    1.000
    Si357    Si       0.01305    0.27076    0.15076    1.000
    Si358    Si       0.04995    0.25992    0.21617    1.000
    N359     N        0.09021    0.25058    0.20098    1.000
    Si360    Si       0.11134    0.28761    0.20870    1.000
    N361     N        0.19847    0.26672    0.22637    1.000
    Si362    Si       0.20432    0.28159    0.18372    1.000
    N363     N        0.13824    0.27843    0.24271    1.000
    N364     N        0.18019    0.26560    0.15133    1.000
    Si365    Si       0.14875    0.29471    0.13962    1.000
    Si366    Si       0.10634    0.30224    0.03840    1.000
    N367     N        0.10110    0.29429    0.99697    1.000
    N368     N        0.07847    0.27469    0.33709    1.000
    N369     N        0.03934    0.27342    0.25952    1.000
    N370     N        0.01419    0.25932    0.36446    1.000
    Si371    Si       0.99750    0.29263    0.26639    1.000
    Si372    Si       0.05010    0.28403    0.37000    1.000
    Si373    Si       0.10700    0.25409    0.36852    1.000
    N374     N        0.20473    0.28584    0.33379    1.000
    Si375    Si       0.22014    0.25684    0.30458    1.000
    N376     N        0.14088    0.28219    0.37169    1.000
    Si377    Si       0.21797    0.29732    0.24917    1.000
    N378     N        0.98915    0.29638    0.30869    1.000
    Si379    Si       0.16621    0.24772    0.24992    1.000
    Si380    Si       0.07819    0.28988    0.44051    1.000
    Si381    Si       0.00177    0.29222    0.46413    1.000
    N382     N        0.07672    0.26813    0.40180    1.000
    N383     N        0.04376    0.28233    0.46771    1.000
    N384     N        0.11578    0.27806    0.46156    1.000
    Si385    Si       0.22971    0.28922    0.46505    1.000
    N386     N        0.18753    0.28975    0.47387    1.000
    Si387    Si       0.17953    0.26552    0.38078    1.000
    N388     N        0.21930    0.28024    0.39534    1.000
    Si389    Si       0.15660    0.26352    0.46027    1.000
    N390     N        0.16665    0.24794    0.42229    1.000
    Si391    Si       0.23612    0.30183    0.35979    1.000
    N392     N        0.24368    0.25066    0.45196    1.000
    Si393    Si       0.99031    0.25582    0.32831    1.000
    N394     N        0.01206    0.26456    0.60218    1.000
    N395     N        0.07630    0.27370    0.58592    1.000
    N396     N        0.09102    0.26212    0.52303    1.000
    N397     N        0.02607    0.26293    0.53369    1.000
    Si398    Si       0.05566    0.28185    0.50948    1.000
    Si399    Si       0.04192    0.25072    0.57261    1.000
    Si400    Si       0.10821    0.27961    0.55740    1.000
    Si401    Si       0.18454    0.27531    0.58310    1.000
    N402     N        0.14280    0.26610    0.58110    1.000
    N403     N        0.19977    0.26415    0.54438    1.000
    Si404    Si       0.19731    0.30088    0.51704    1.000
    Si405    Si       0.09205    0.28713    0.62572    1.000
    N406     N        0.04565    0.29212    0.72545    1.000
    Si407    Si       0.02190    0.29105    0.63487    1.000
    N408     N        0.06128    0.29366    0.65427    1.000
    N409     N        0.11159    0.28564    0.70025    1.000
    N410     N        0.11120    0.24996    0.63870    1.000
    N411     N        0.99880    0.29785    0.67111    1.000
    Si412    Si       0.13167    0.29567    0.73732    1.000
    N413     N        0.20759    0.26305    0.61958    1.000
    Si414    Si       0.12540    0.25099    0.68091    1.000
    N415     N        0.22317    0.29944    0.67514    1.000
    N416     N        0.16819    0.25571    0.67835    1.000
    Si417    Si       0.18146    0.29631    0.68829    1.000
    N418     N        0.17415    0.29915    0.73290    1.000
    Si419    Si       0.04510    0.26059    0.83153    1.000
    N420     N        0.05988    0.27794    0.79498    1.000
    N421     N        0.01915    0.29360    0.84170    1.000
    Si422    Si       0.04415    0.25888    0.75801    1.000
    N423     N        0.07393    0.25825    0.86682    1.000
    Si424    Si       0.20680    0.27764    0.82230    1.000
    N425     N        0.12614    0.29069    0.82113    1.000
    N426     N        0.12493    0.25654    0.75753    1.000
    Si427    Si       0.13797    0.25412    0.79885    1.000
    N428     N        0.22567    0.24985    0.84947    1.000
    Si429    Si       0.14542    0.29997    0.85795    1.000
    N430     N        0.22332    0.30199    0.92993    1.000
    Si431    Si       0.99476    0.29027    0.87767    1.000
    N432     N        0.03644    0.26937    0.97337    1.000
    Si433    Si       0.07964    0.26349    0.97586    1.000
    N434     N        0.02096    0.27729    0.90898    1.000
    N435     N        0.09046    0.26463    0.93228    1.000
    Si436    Si       0.02359    0.29974    0.94654    1.000
    Si437    Si       0.05935    0.25301    0.90620    1.000
    Si438    Si       0.13376    0.26005    0.92541    1.000
    N439     N        0.14040    0.26513    0.88260    1.000
    N440     N        0.15787    0.28778    0.94883    1.000
    Si441    Si       0.19906    0.27625    0.95502    1.000
    N442     N        0.02676    0.34769    0.04711    1.000
    N443     N        0.09698    0.34328    0.04987    1.000
    N444     N        0.05212    0.32769    0.10844    1.000
    Si445    Si       0.06101    0.35224    0.07493    1.000
    Si446    Si       0.99690    0.31853    0.05572    1.000
    N447     N        0.19540    0.32426    0.18469    1.000
    N448     N        0.14763    0.34375    0.00085    1.000
    Si449    Si       0.19571    0.33688    0.08914    1.000
    N450     N        0.19372    0.32571    0.04652    1.000
    Si451    Si       0.18788    0.35448    0.01466    1.000
    N452     N        0.16087    0.32723    0.11285    1.000
    N453     N        0.23507    0.32698    0.10694    1.000
    N454     N        0.07863    0.31574    0.22313    1.000
    Si455    Si       0.02277    0.34149    0.13674    1.000
    Si456    Si       0.00654    0.32187    0.20382    1.000
    N457     N        0.03528    0.34547    0.17865    1.000
    Si458    Si       0.07513    0.34873    0.19458    1.000
    N459     N        0.99688    0.30748    0.13605    1.000
    N460     N        0.14404    0.34618    0.22879    1.000
    Si461    Si       0.22536    0.35205    0.20011    1.000
    N462     N        0.12644    0.31098    0.17429    1.000
    Si463    Si       0.15462    0.34204    0.18769    1.000
    N464     N        0.07228    0.33468    0.29142    1.000
    N465     N        0.10145    0.33583    0.36203    1.000
    Si466    Si       0.09685    0.31459    0.32382    1.000
    Si467    Si       0.05626    0.31264    0.25897    1.000
    Si468    Si       0.14677    0.31677    0.26063    1.000
    N469     N        0.17007    0.34537    0.34465    1.000
    N470     N        0.18779    0.31813    0.27325    1.000
    N471     N        0.13419    0.30923    0.30283    1.000
    Si472    Si       0.17566    0.31291    0.31574    1.000
    Si473    Si       0.14346    0.32713    0.37510    1.000
    N474     N        0.03843    0.32389    0.37981    1.000
    Si475    Si       0.99887    0.33079    0.39533    1.000
    Si476    Si       0.07193    0.34921    0.39196    1.000
    N477     N        0.08362    0.33089    0.43095    1.000
    N478     N        0.99868    0.33153    0.48504    1.000
    N479     N        0.22492    0.34158    0.37608    1.000
    Si480    Si       0.21117    0.32395    0.41293    1.000
    N481     N        0.24023    0.32632    0.44379    1.000
    N482     N        0.16939    0.33452    0.41224    1.000
    N483     N        0.01472    0.32835    0.24555    1.000
    N484     N        0.05629    0.32288    0.51816    1.000
    Si485    Si       0.01580    0.33633    0.52432    1.000
    Si486    Si       0.09146    0.34582    0.53049    1.000
    N487     N        0.00820    0.32788    0.61650    1.000
    N488     N        0.11728    0.32100    0.55570    1.000
    Si489    Si       0.00696    0.36118    0.59080    1.000
    Si490    Si       0.14354    0.32841    0.58971    1.000
    N491     N        0.18250    0.34116    0.52425    1.000
    N492     N        0.18619    0.31829    0.58522    1.000
    Si493    Si       0.19344    0.35610    0.56446    1.000
    Si494    Si       0.07493    0.30515    0.69492    1.000
    N495     N        0.08849    0.34891    0.68952    1.000
    Si496    Si       0.00766    0.30915    0.71180    1.000
    N497     N        0.00669    0.35406    0.71364    1.000
    N498     N        0.11593    0.32447    0.62336    1.000
    N499     N        0.15830    0.33053    0.67614    1.000
    N500     N        0.23068    0.34410    0.73269    1.000
    Si501    Si       0.12178    0.34918    0.66003    1.000
    N502     N        0.11563    0.35881    0.49653    1.000
    Si503    Si       0.02813    0.32940    0.81783    1.000
    N504     N        0.00918    0.33137    0.77982    1.000
    N505     N        0.07118    0.33774    0.81924    1.000
    Si506    Si       0.09287    0.30641    0.79798    1.000
    Si507    Si       0.09943    0.36132    0.84334    1.000
    N508     N        0.11415    0.32413    0.76527    1.000
    Si509    Si       0.13283    0.31560    0.97166    1.000
    Si510    Si       0.19782    0.32707    0.75804    1.000
    Si511    Si       0.21891    0.33510    0.82974    1.000
    N512     N        0.18619    0.31130    0.84479    1.000
    N513     N        0.22095    0.30699    0.79123    1.000
    N514     N        0.17332    0.35975    0.76739    1.000
    N515     N        0.17537    0.36002    0.93355    1.000
    N516     N        0.12492    0.33770    0.87070    1.000
    N517     N        0.03957    0.33853    0.93639    1.000
    Si518    Si       0.07629    0.35589    0.95059    1.000
    N519     N        0.11156    0.33644    0.93906    1.000
    N520     N        0.21947    0.34693    0.98551    1.000
    Si521    Si       0.13749    0.35348    0.90862    1.000
    Si522    Si       0.21360    0.34272    0.94216    1.000
    Si523    Si       0.02680    0.39154    0.04187    1.000
    N524     N        0.05432    0.39672    0.07622    1.000
    N525     N        0.03061    0.41397    0.00536    1.000
    Si526    Si       0.03053    0.41515    0.11015    1.000
    Si527    Si       0.11455    0.36746    0.01896    1.000
    N528     N        0.00802    0.37936    0.12277    1.000
    N529     N        0.12115    0.40874    0.03389    1.000
    N530     N        0.12237    0.39864    0.11031    1.000
    N531     N        0.18799    0.39713    0.01736    1.000
    N532     N        0.18652    0.37975    0.09292    1.000
    N533     N        0.99026    0.40233    0.06335    1.000
    N534     N        0.08994    0.38582    0.20789    1.000
    Si535    Si       0.06068    0.41267    0.22557    1.000
    N536     N        0.20722    0.37950    0.22724    1.000
    Si537    Si       0.12316    0.38241    0.23684    1.000
    Si538    Si       0.15486    0.37118    0.12184    1.000
    N539     N        0.15171    0.37957    0.16601    1.000
    Si540    Si       0.14816    0.41931    0.18406    1.000
    N541     N        0.14616    0.41929    0.23154    1.000
    Si542    Si       0.07403    0.37660    0.29052    1.000
    N543     N        0.05505    0.39925    0.32344    1.000
    Si544    Si       0.00640    0.36890    0.25857    1.000
    Si545    Si       0.00949    0.40033    0.32206    1.000
    N546     N        0.04551    0.38899    0.25926    1.000
    N547     N        0.00049    0.39725    0.36242    1.000
    N548     N        0.11063    0.39397    0.27690    1.000
    Si549    Si       0.19900    0.37236    0.36107    1.000
    N550     N        0.23217    0.40196    0.35184    1.000
    N551     N        0.06300    0.39269    0.39233    1.000
    N552     N        0.06418    0.39109    0.45956    1.000
    Si553    Si       0.01813    0.39869    0.40104    1.000
    N554     N        0.00207    0.39800    0.48629    1.000
    Si555    Si       0.08553    0.41053    0.42459    1.000
    N556     N        0.17835    0.38017    0.46568    1.000
    Si557    Si       0.09500    0.36161    0.45831    1.000
    N558     N        0.00883    0.36317    0.42256    1.000
    N559     N        0.12165    0.38702    0.42966    1.000
    Si560    Si       0.21742    0.40208    0.46717    1.000
    N561     N        0.17680    0.39441    0.39105    1.000
    Si562    Si       0.16291    0.37419    0.42741    1.000
    N563     N        0.24144    0.39291    0.43309    1.000
    N564     N        0.03422    0.39246    0.60570    1.000
    N565     N        0.09058    0.38614    0.55513    1.000
    N566     N        0.02016    0.37541    0.54749    1.000
    Si567    Si       0.05241    0.39981    0.56492    1.000
    N568     N        0.22543    0.38365    0.56350    1.000
    N569     N        0.15369    0.40882    0.52527    1.000
    N570     N        0.15448    0.37064    0.58658    1.000
    Si571    Si       0.15771    0.37054    0.50287    1.000
    Si572    Si       0.13104    0.40099    0.56367    1.000
    Si573    Si       0.23636    0.40283    0.60277    1.000
    Si574    Si       0.16242    0.39856    0.61979    1.000
    Si575    Si       0.08400    0.38311    0.71470    1.000
    N576     N        0.02051    0.41402    0.67254    1.000
    Si577    Si       0.99086    0.38543    0.68826    1.000
    N578     N        0.13508    0.39090    0.65208    1.000
    N579     N        0.20428    0.40873    0.63109    1.000
    Si580    Si       0.20803    0.42034    0.67607    1.000
    N581     N        0.11918    0.38751    0.74093    1.000
    Si582    Si       0.17973    0.39678    0.74239    1.000
    N583     N        0.17736    0.40076    0.70048    1.000
    N584     N        0.09206    0.42137    0.69570    1.000
    Si585    Si       0.03623    0.39688    0.84738    1.000
    Si586    Si       0.01846    0.36626    0.75532    1.000
    N587     N        0.07704    0.39056    0.86387    1.000
    N588     N        0.05251    0.39053    0.74537    1.000
    N589     N        0.12081    0.38106    0.81255    1.000
    N590     N        0.21593    0.37693    0.82228    1.000
    Si591    Si       0.19274    0.40961    0.80705    1.000
    N592     N        0.22005    0.41192    0.75095    1.000
    Si593    Si       0.16270    0.40121    0.93597    1.000
    Si594    Si       0.23755    0.40760    0.91195    1.000
    N595     N        0.06175    0.39736    0.93638    1.000
    N596     N        0.08422    0.37502    0.99019    1.000
    Si597    Si       0.08743    0.40918    0.90298    1.000
    Si598    Si       0.06537    0.41147    0.97846    1.000
    N599     N        0.01666    0.40191    0.88658    1.000
    Si600    Si       0.02280    0.37788    0.92293    1.000
    N601     N        0.12779    0.39586    0.90906    1.000
    N602     N        0.03651    0.42051    0.81097    1.000
    N603     N        0.01033    0.36404    0.83786    1.000
    Si604    Si       0.13063    0.36307    0.77489    1.000
    N605     N        0.00611    0.46777    0.04168    1.000
    Si606    Si       0.00088    0.44804    0.00347    1.000
    N607     N        0.10272    0.45572    0.09128    1.000
    N608     N        0.99598    0.44491    0.11174    1.000
    N609     N        0.16393    0.43944    0.07025    1.000
    N610     N        0.14513    0.47209    0.01562    1.000
    Si611    Si       0.15661    0.42836    0.01524    1.000
    N612     N        0.23200    0.42966    0.05367    1.000
    Si613    Si       0.20185    0.42085    0.08531    1.000
    Si614    Si       0.22430    0.42062    0.01067    1.000
    Si615    Si       0.19099    0.42230    0.22920    1.000
    N616     N        0.05899    0.43176    0.13896    1.000
    Si617    Si       0.10000    0.43164    0.12947    1.000
    Si618    Si       0.04446    0.45916    0.17094    1.000
    N619     N        0.03108    0.43318    0.20139    1.000
    N620     N        0.08161    0.44681    0.24109    1.000
    N621     N        0.18926    0.43646    0.18731    1.000
    N622     N        0.22071    0.43948    0.12485    1.000
    N623     N        0.12233    0.44729    0.16275    1.000
    Si624    Si       0.20239    0.46322    0.15574    1.000
    Si625    Si       0.12427    0.42338    0.07395    1.000
    Si626    Si       0.01109    0.47017    0.34296    1.000
    N627     N        0.04689    0.45773    0.36435    1.000
    N628     N        0.99624    0.44255    0.31306    1.000
    Si629    Si       0.06948    0.42134    0.35637    1.000
    N630     N        0.11330    0.42858    0.35983    1.000
    Si631    Si       0.11897    0.43483    0.26249    1.000
    Si632    Si       0.21761    0.44266    0.34981    1.000
    N633     N        0.17465    0.44489    0.34611    1.000
    Si634    Si       0.13488    0.45813    0.33266    1.000
    N635     N        0.12242    0.46488    0.29395    1.000
    N636     N        0.21998    0.42980    0.25964    1.000
    N637     N        0.23170    0.46713    0.31849    1.000
    N638     N        0.08517    0.45362    0.42519    1.000
    N639     N        0.01856    0.43212    0.42736    1.000
    Si640    Si       0.09510    0.46735    0.46551    1.000
    N641     N        0.05913    0.45231    0.48774    1.000
    Si642    Si       0.99408    0.46997    0.41895    1.000
    Si643    Si       0.03487    0.42050    0.46901    1.000
    Si644    Si       0.17308    0.46757    0.45036    1.000
    N645     N        0.16419    0.45942    0.40885    1.000
    Si646    Si       0.15144    0.42661    0.38093    1.000
    N647     N        0.23303    0.45148    0.38915    1.000
    N648     N        0.20771    0.44335    0.46618    1.000
    N649     N        0.13678    0.46033    0.47294    1.000
    N650     N        0.04097    0.44099    0.55537    1.000
    Si651    Si       0.00269    0.45623    0.56798    1.000
    Si652    Si       0.06669    0.46346    0.52816    1.000
    N653     N        0.99336    0.44431    0.60921    1.000
    N654     N        0.11065    0.46240    0.53528    1.000
    N655     N        0.14497    0.42921    0.59400    1.000
    Si656    Si       0.14860    0.46927    0.60960    1.000
    Si657    Si       0.14845    0.45103    0.51522    1.000
    Si658    Si       0.22608    0.46356    0.50258    1.000
    N659     N        0.18675    0.47413    0.52160    1.000
    N660     N        0.05726    0.45540    0.64018    1.000
    Si661    Si       0.05489    0.44100    0.68286    1.000
    Si662    Si       0.02598    0.42642    0.63099    1.000
    N663     N        0.14705    0.44723    0.72041    1.000
    N664     N        0.20860    0.46327    0.69118    1.000
    Si665    Si       0.13623    0.42610    0.68181    1.000
    N666     N        0.14840    0.46204    0.65331    1.000
    Si667    Si       0.17928    0.47576    0.71981    1.000
    N668     N        0.04783    0.47909    0.70460    1.000
    N669     N        0.09241    0.44901    0.76599    1.000
    N670     N        0.02048    0.45523    0.75985    1.000
    Si671    Si       0.05274    0.42785    0.77043    1.000
    Si672    Si       0.99576    0.43187    0.79593    1.000
    N673     N        0.11064    0.46028    0.82893    1.000
    Si674    Si       0.18294    0.44556    0.87792    1.000
    N675     N        0.22692    0.43773    0.80935    1.000
    Si676    Si       0.12582    0.42908    0.75071    1.000
    Si677    Si       0.23536    0.44889    0.76792    1.000
    N678     N        0.15669    0.42143    0.78177    1.000
    N679     N        0.21556    0.47165    0.86789    1.000
    N680     N        0.15146    0.47313    0.88951    1.000
    N681     N        0.14973    0.42481    0.96860    1.000
    Si682    Si       0.11256    0.47446    0.87017    1.000
    N683     N        0.08285    0.45074    0.97618    1.000
    N684     N        0.01540    0.47153    0.97059    1.000
    N685     N        0.08564    0.45106    0.89642    1.000
    Si686    Si       0.12478    0.46021    0.97451    1.000
    N687     N        0.21737    0.45479    0.98701    1.000
    Si688    Si       0.13346    0.42342    0.82001    1.000
    N689     N        0.16943    0.42217    0.84505    1.000
    N690     N        0.19632    0.42158    0.91211    1.000
    N691     N        0.05836    0.51377    0.07975    1.000
    N692     N        0.05913    0.50776    0.01395    1.000
    Si693    Si       0.03026    0.50515    0.04611    1.000
    Si694    Si       0.09307    0.49635    0.09622    1.000
    N695     N        0.20324    0.52175    0.24249    1.000
    N696     N        0.12601    0.51393    0.07183    1.000
    N697     N        0.18779    0.50319    0.06676    1.000
    Si698    Si       0.21615    0.52011    0.03729    1.000
    Si699    Si       0.18665    0.51870    0.10688    1.000
    N700     N        0.19467    0.51920    0.99916    1.000
    N701     N        0.22723    0.53499    0.11608    1.000
    Si702    Si       0.15206    0.51143    0.99509    1.000
    Si703    Si       0.07345    0.48805    0.23668    1.000
    N704     N        0.06249    0.49257    0.19572    1.000
    N705     N        0.10190    0.50880    0.13704    1.000
    Si706    Si       0.03396    0.52285    0.17740    1.000
    N707     N        0.01399    0.48776    0.15785    1.000
    Si708    Si       0.15193    0.48220    0.05706    1.000
    Si709    Si       0.13548    0.48974    0.15617    1.000
    Si710    Si       0.19312    0.52178    0.20000    1.000
    N711     N        0.17275    0.48741    0.13211    1.000
    N712     N        0.22017    0.49931    0.17552    1.000
    N713     N        0.15144    0.51219    0.19064    1.000
    N714     N        0.01592    0.51083    0.32327    1.000
    N715     N        0.08670    0.52587    0.31781    1.000
    Si716    Si       0.10557    0.52873    0.35792    1.000
    N717     N        0.04392    0.50605    0.26154    1.000
    Si718    Si       0.04770    0.52549    0.29926    1.000
    Si719    Si       0.01538    0.53508    0.24836    1.000
    Si720    Si       0.23428    0.50580    0.33834    1.000
    Si721    Si       0.11754    0.50982    0.29094    1.000
    N722     N        0.13557    0.49715    0.35134    1.000
    N723     N        0.19890    0.51513    0.36574    1.000
    N724     N        0.23808    0.53285    0.30557    1.000
    N725     N        0.02543    0.49870    0.42615    1.000
    N726     N        0.07746    0.51607    0.38945    1.000
    N727     N        0.08749    0.51182    0.46731    1.000
    Si728    Si       0.09650    0.53248    0.42697    1.000
    Si729    Si       0.05923    0.47826    0.40226    1.000
    N730     N        0.13712    0.51743    0.41552    1.000
    N731     N        0.18842    0.50813    0.45014    1.000
    Si732    Si       0.16314    0.49735    0.38628    1.000
    Si733    Si       0.22873    0.51981    0.45828    1.000
    N734     N        0.15135    0.53995    0.29683    1.000
    N735     N        0.10974    0.51296    0.24745    1.000
    N736     N        0.06695    0.50673    0.53996    1.000
    Si737    Si       0.03549    0.52392    0.56699    1.000
    N738     N        0.04335    0.51869    0.61017    1.000
    N739     N        0.00070    0.50050    0.55692    1.000
    N740     N        0.11090    0.49095    0.59918    1.000
    Si741    Si       0.10946    0.50138    0.55602    1.000
    Si742    Si       0.06993    0.53057    0.50288    1.000
    Si743    Si       0.18102    0.50841    0.54534    1.000
    N744     N        0.17776    0.49130    0.58703    1.000
    N745     N        0.14089    0.52433    0.53807    1.000
    Si746    Si       0.18810    0.52951    0.60676    1.000
    Si747    Si       0.07722    0.49181    0.62861    1.000
    Si748    Si       0.06783    0.51714    0.69712    1.000
    N749     N        0.09677    0.50592    0.66469    1.000
    N750     N        0.07081    0.52360    0.74025    1.000
    N751     N        0.99205    0.50891    0.65737    1.000
    Si752    Si       0.02222    0.53773    0.64257    1.000
    N753     N        0.22895    0.52008    0.61948    1.000
    N754     N        0.23557    0.52694    0.68599    1.000
    N755     N        0.15237    0.50969    0.71024    1.000
    Si756    Si       0.13902    0.50202    0.67065    1.000
    N757     N        0.16499    0.52965    0.64765    1.000
    N758     N        0.21121    0.53815    0.55608    1.000
    N759     N        0.05234    0.50075    0.79575    1.000
    Si760    Si       0.01746    0.52534    0.80917    1.000
    Si761    Si       0.09321    0.48263    0.79798    1.000
    Si762    Si       0.00156    0.52218    0.87042    1.000
    Si763    Si       0.04324    0.49279    0.74969    1.000
    N764     N        0.11621    0.52008    0.79425    1.000
    N765     N        0.00300    0.51722    0.74746    1.000
    N766     N        0.22728    0.51008    0.81185    1.000
    Si767    Si       0.21564    0.51708    0.77205    1.000
    N768     N        0.17908    0.54020    0.76891    1.000
    N769     N        0.08799    0.50912    0.87409    1.000
    Si770    Si       0.06291    0.48929    0.90467    1.000
    N771     N        0.06737    0.50741    0.94291    1.000
    N772     N        0.01810    0.49381    0.89967    1.000
    Si773    Si       0.05565    0.48355    0.97597    1.000
    N774     N        0.22537    0.53792    0.88103    1.000
    Si775    Si       0.21862    0.49500    0.96963    1.000
    Si776    Si       0.23002    0.49976    0.89877    1.000
    N777     N        0.13972    0.49679    0.95687    1.000
    Si778    Si       0.16186    0.50367    0.91993    1.000
    N779     N        0.20301    0.49620    0.93197    1.000
    N780     N        0.98751    0.50670    0.83168    1.000
    N781     N        0.20782    0.47846    0.75424    1.000
    Si782    Si       0.99227    0.47936    0.93322    1.000
    N783     N        0.06775    0.57421    0.04345    1.000
    Si784    Si       0.04617    0.55562    0.07877    1.000
    N785     N        0.10009    0.57123    0.11029    1.000
    Si786    Si       0.08211    0.54359    0.01260    1.000
    N787     N        0.03399    0.59117    0.10267    1.000
    Si788    Si       0.12423    0.53611    0.21335    1.000
    Si789    Si       0.13263    0.55526    0.08530    1.000
    Si790    Si       0.14146    0.58403    0.01262    1.000
    N791     N        0.14392    0.58447    0.05634    1.000
    N792     N        0.22869    0.55747    0.05239    1.000
    N793     N        0.12638    0.54370    0.00605    1.000
    N794     N        0.16434    0.55560    0.11793    1.000
    N795     N        0.18409    0.59195    0.00339    1.000
    Si796    Si       0.21251    0.59538    0.03589    1.000
    N797     N        0.01205    0.54611    0.20734    1.000
    Si798    Si       0.08807    0.54891    0.14723    1.000
    N799     N        0.04674    0.55225    0.15013    1.000
    N800     N        0.10332    0.56235    0.18705    1.000
    Si801    Si       0.01436    0.57686    0.13691    1.000
    Si802    Si       0.99585    0.58685    0.20622    1.000
    Si803    Si       0.17221    0.59395    0.20581    1.000
    Si804    Si       0.18413    0.57956    0.14732    1.000
    N805     N        0.19595    0.56367    0.18722    1.000
    N806     N        0.14925    0.56728    0.23426    1.000
    N807     N        0.01023    0.54205    0.05547    1.000
    N808     N        0.02210    0.55957    0.28360    1.000
    N809     N        0.03259    0.57851    0.36554    1.000
    N810     N        0.08227    0.58581    0.26276    1.000
    N811     N        0.12288    0.56803    0.36019    1.000
    Si812    Si       0.22669    0.57381    0.31635    1.000
    Si813    Si       0.14992    0.57464    0.32468    1.000
    N814     N        0.20850    0.57767    0.27288    1.000
    Si815    Si       0.17717    0.54912    0.26453    1.000
    N816     N        0.18876    0.57802    0.33920    1.000
    Si817    Si       0.15985    0.54407    0.44195    1.000
    N818     N        0.05943    0.56055    0.43399    1.000
    Si819    Si       0.08835    0.58331    0.46281    1.000
    Si820    Si       0.04636    0.59249    0.40296    1.000
    N821     N        0.02946    0.54060    0.49064    1.000
    Si822    Si       0.02314    0.53770    0.44755    1.000
    Si823    Si       0.20073    0.58441    0.48769    1.000
    N824     N        0.16518    0.55923    0.48397    1.000
    N825     N        0.23449    0.55966    0.47377    1.000
    N826     N        0.11968    0.57220    0.43371    1.000
    Si827    Si       0.20268    0.55702    0.37550    1.000
    N828     N        0.18286    0.56860    0.41091    1.000
    Si829    Si       0.12026    0.59682    0.39527    1.000
    N830     N        0.02556    0.56643    0.55595    1.000
    Si831    Si       0.00755    0.57023    0.51552    1.000
    Si832    Si       0.00948    0.59250    0.58865    1.000
    N833     N        0.09773    0.56565    0.50250    1.000
    Si834    Si       0.13808    0.56193    0.51805    1.000
    N835     N        0.17609    0.57295    0.60631    1.000
    Si836    Si       0.23591    0.57424    0.55018    1.000
    Si837    Si       0.15986    0.54747    0.73108    1.000
    N838     N        0.00583    0.57580    0.62780    1.000
    Si839    Si       0.04471    0.58784    0.69332    1.000
    N840     N        0.04460    0.54849    0.67773    1.000
    N841     N        0.03326    0.58261    0.73397    1.000
    N842     N        0.18519    0.57127    0.70378    1.000
    N843     N        0.22056    0.58375    0.64639    1.000
    Si844    Si       0.22778    0.55940    0.71348    1.000
    N845     N        0.12139    0.56437    0.74547    1.000
    Si846    Si       0.17692    0.57126    0.65607    1.000
    Si847    Si       0.14553    0.59942    0.58919    1.000
    N848     N        0.14317    0.59448    0.54721    1.000
    N849     N        0.07312    0.57342    0.80218    1.000
    N850     N        0.00529    0.56652    0.79515    1.000
    Si851    Si       0.03679    0.58366    0.82406    1.000
    Si852    Si       0.08821    0.54718    0.77164    1.000
    Si853    Si       0.00017    0.56055    0.75212    1.000
    N854     N        0.03364    0.54446    0.84889    1.000
    N855     N        0.11425    0.57083    0.85815    1.000
    Si856    Si       0.07506    0.55243    0.86980    1.000
    Si857    Si       0.10154    0.59893    0.82667    1.000
    N858     N        0.13648    0.59154    0.80250    1.000
    Si859    Si       0.15000    0.54798    0.80025    1.000
    N860     N        0.23343    0.58254    0.83288    1.000
    Si861    Si       0.21647    0.54253    0.83872    1.000
    N862     N        0.17435    0.54203    0.83683    1.000
    Si863    Si       0.15402    0.56475    0.86720    1.000
    Si864    Si       0.20121    0.56561    0.90401    1.000
    Si865    Si       0.05401    0.54904    0.94592    1.000
    N866     N        0.07212    0.57174    0.97780    1.000
    N867     N        0.06156    0.56577    0.90810    1.000
    N868     N        0.01275    0.54745    0.95589    1.000
    N869     N        0.16063    0.54413    0.90777    1.000
    N870     N        0.21897    0.56961    0.94219    1.000
    N871     N        0.18387    0.59367    0.87605    1.000
    N872     N        0.01901    0.63064    0.05523    1.000
    N873     N        0.08269    0.63794    0.07905    1.000
    Si874    Si       0.04257    0.63063    0.09055    1.000
    Si875    Si       0.10135    0.61583    0.11256    1.000
    N876     N        0.06634    0.63674    0.00469    1.000
    Si877    Si       0.04194    0.60635    0.02592    1.000
    N878     N        0.18302    0.62449    0.23311    1.000
    Si879    Si       0.23270    0.65235    0.14577    1.000
    Si880    Si       0.15465    0.62346    0.06669    1.000
    N881     N        0.14320    0.62971    0.10701    1.000
    N882     N        0.19987    0.62640    0.06457    1.000
    N883     N        0.13572    0.65321    0.04196    1.000
    N884     N        0.02112    0.60930    0.23183    1.000
    N885     N        0.09051    0.62786    0.15296    1.000
    N886     N        0.00183    0.60490    0.16713    1.000
    Si887    Si       0.10926    0.60591    0.18417    1.000
    Si888    Si       0.01937    0.65062    0.21688    1.000
    N889     N        0.20500    0.61812    0.13850    1.000
    N890     N        0.12056    0.62548    0.22204    1.000
    N891     N        0.15154    0.60379    0.16962    1.000
    Si892    Si       0.16493    0.63600    0.14207    1.000
    N893     N        0.00339    0.59562    0.00616    1.000
    N894     N        0.03076    0.62216    0.30140    1.000
    Si895    Si       0.01211    0.60146    0.33246    1.000
    Si896    Si       0.04179    0.59605    0.26952    1.000
    Si897    Si       0.16344    0.64335    0.30074    1.000
    N898     N        0.13920    0.60504    0.29584    1.000
    Si899    Si       0.21681    0.61722    0.25904    1.000
    N900     N        0.20697    0.64430    0.29203    1.000
    Si901    Si       0.12167    0.59454    0.25572    1.000
    N902     N        0.01602    0.61098    0.42653    1.000
    Si903    Si       0.02738    0.62722    0.46631    1.000
    N904     N        0.07145    0.62105    0.47178    1.000
    N905     N        0.08233    0.61660    0.39887    1.000
    N906     N        0.19059    0.61612    0.46208    1.000
    N907     N        0.15217    0.62725    0.39497    1.000
    N908     N        0.22192    0.62763    0.40431    1.000
    Si909    Si       0.18530    0.61386    0.41841    1.000
    N910     N        0.98831    0.63236    0.35288    1.000
    N911     N        0.03291    0.62805    0.58937    1.000
    Si912    Si       0.07727    0.63098    0.59993    1.000
    N913     N        0.10753    0.60318    0.61198    1.000
    N914     N        0.00319    0.61154    0.49926    1.000
    Si915    Si       0.17689    0.62371    0.54481    1.000
    N916     N        0.17648    0.63274    0.58779    1.000
    Si917    Si       0.20747    0.60794    0.60851    1.000
    N918     N        0.16304    0.61939    0.74429    1.000
    N919     N        0.20922    0.59956    0.52777    1.000
    N920     N        0.15283    0.60736    0.66141    1.000
    N921     N        0.08563    0.65517    0.63631    1.000
    N922     N        0.08094    0.60897    0.68755    1.000
    N923     N        0.01356    0.61762    0.68251    1.000
    Si924    Si       0.08690    0.64448    0.71573    1.000
    Si925    Si       0.11157    0.62315    0.65587    1.000
    N926     N        0.21433    0.64397    0.63612    1.000
    N927     N        0.20263    0.64554    0.69720    1.000
    Si928    Si       0.17042    0.61443    0.70182    1.000
    Si929    Si       0.23318    0.62447    0.67054    1.000
    N930     N        0.12257    0.65652    0.69522    1.000
    N931     N        0.02234    0.62472    0.81452    1.000
    N932     N        0.09024    0.64219    0.82133    1.000
    Si933    Si       0.05056    0.64492    0.84137    1.000
    N934     N        0.06063    0.60155    0.85934    1.000
    N935     N        0.09646    0.63212    0.75643    1.000
    N936     N        0.19509    0.64111    0.81414    1.000
    Si937    Si       0.21014    0.61576    0.84557    1.000
    Si938    Si       0.17973    0.64811    0.77360    1.000
    Si939    Si       0.12964    0.60390    0.76240    1.000
    Si940    Si       0.99292    0.64826    0.90036    1.000
    N941     N        0.07136    0.62734    0.93378    1.000
    Si942    Si       0.08313    0.61221    0.97374    1.000
    N943     N        0.00257    0.60500    0.90297    1.000
    Si944    Si       0.04741    0.60792    0.90143    1.000
    N945     N        0.17986    0.62390    0.93668    1.000
    N946     N        0.22681    0.64125    0.87726    1.000
    Si947    Si       0.18911    0.64631    0.89990    1.000
    Si948    Si       0.20093    0.60232    0.96581    1.000
    N949     N        0.23111    0.63533    0.97240    1.000
    N950     N        0.12607    0.61254    0.98322    1.000
    Si951    Si       0.14868    0.64367    0.96229    1.000
    N952     N        0.06698    0.69715    0.03333    1.000
    N953     N        0.01602    0.70358    0.07702    1.000
    N954     N        0.00617    0.67899    0.00428    1.000
    Si955    Si       0.01194    0.68871    0.11747    1.000
    Si956    Si       0.04964    0.67638    0.99781    1.000
    Si957    Si       0.22092    0.66436    0.07425    1.000
    N958     N        0.20497    0.69280    0.04542    1.000
    Si959    Si       0.16540    0.68331    0.02722    1.000
    N960     N        0.21525    0.68054    0.11490    1.000
    Si961    Si       0.06955    0.66547    0.15438    1.000
    Si962    Si       0.05271    0.70000    0.22749    1.000
    N963     N        0.09099    0.69974    0.13891    1.000
    N964     N        0.05514    0.66885    0.19509    1.000
    N965     N        0.09540    0.70374    0.24120    1.000
    N966     N        0.16717    0.69237    0.22046    1.000
    N967     N        0.22405    0.66876    0.18531    1.000
    Si968    Si       0.13278    0.70881    0.14863    1.000
    N969     N        0.15851    0.67322    0.15956    1.000
    Si970    Si       0.19024    0.69316    0.18387    1.000
    Si971    Si       0.98966    0.69352    0.04253    1.000
    Si972    Si       0.09099    0.65614    0.03980    1.000
    N973     N        0.03947    0.65760    0.12399    1.000
    Si974    Si       0.14983    0.65534    0.23560    1.000
    N975     N        0.07066    0.68288    0.30498    1.000
    Si976    Si       0.06698    0.69167    0.34795    1.000
    N977     N        0.00630    0.68858    0.32160    1.000
    Si978    Si       0.03215    0.66632    0.29420    1.000
    Si979    Si       0.99666    0.67311    0.36333    1.000
    Si980    Si       0.10689    0.69423    0.28251    1.000
    N981     N        0.02720    0.67517    0.25341    1.000
    N982     N        0.10086    0.67093    0.36498    1.000
    N983     N        0.16294    0.66992    0.33600    1.000
    Si984    Si       0.22570    0.68414    0.28803    1.000
    N985     N        0.13597    0.66611    0.27544    1.000
    Si986    Si       0.16679    0.71135    0.32232    1.000
    N987     N        0.03876    0.67247    0.37685    1.000
    N988     N        0.09190    0.67652    0.43407    1.000
    N989     N        0.03350    0.66962    0.46851    1.000
    Si990    Si       0.07855    0.66370    0.47095    1.000
    Si991    Si       0.07435    0.65847    0.39645    1.000
    N992     N        0.15469    0.68190    0.46659    1.000
    Si993    Si       0.14290    0.66530    0.37369    1.000
    Si994    Si       0.19083    0.65760    0.47899    1.000
    N995     N        0.15144    0.69878    0.39925    1.000
    Si996    Si       0.12955    0.69897    0.43402    1.000
    N997     N        0.22859    0.67511    0.46718    1.000
    N998     N        0.19137    0.71294    0.28750    1.000
    Si999    Si       0.07267    0.68889    0.53939    1.000
    N1000    N        0.02915    0.67992    0.53778    1.000
    Si1001   Si       0.02088    0.66998    0.57860    1.000
    N1002    N        0.03584    0.70095    0.60613    1.000
    N1003    N        0.08350    0.66695    0.57507    1.000
    N1004    N        0.09681    0.67932    0.50549    1.000
    Si1005   Si       0.07715    0.69121    0.61294    1.000
    Si1006   Si       0.01477    0.69457    0.49959    1.000
    N1007    N        0.20623    0.69938    0.59234    1.000
    N1008    N        0.22775    0.70650    0.53126    1.000
    Si1009   Si       0.14002    0.68619    0.50970    1.000
    Si1010   Si       0.18611    0.67026    0.61670    1.000
    N1011    N        0.16936    0.65598    0.51943    1.000
    N1012    N        0.05054    0.66751    0.71965    1.000
    N1013    N        0.00232    0.68936    0.66582    1.000
    Si1014   Si       0.05676    0.70419    0.74287    1.000
    Si1015   Si       0.01472    0.65846    0.69616    1.000
    N1016    N        0.16009    0.69449    0.64099    1.000
    Si1017   Si       0.14341    0.69186    0.68155    1.000
    Si1018   Si       0.20712    0.68373    0.71417    1.000
    N1019    N        0.17314    0.70870    0.70671    1.000
    N1020    N        0.04596    0.68956    0.83552    1.000
    N1021    N        0.09098    0.70124    0.77033    1.000
    Si1022   Si       0.10207    0.66400    0.78683    1.000
    N1023    N        0.02387    0.70640    0.77032    1.000
    Si1024   Si       0.16542    0.67682    0.82778    1.000
    N1025    N        0.20490    0.68028    0.75858    1.000
    N1026    N        0.14562    0.66891    0.79050    1.000
    N1027    N        0.19663    0.71027    0.82114    1.000
    N1028    N        0.13119    0.71266    0.83317    1.000
    Si1029   Si       0.04964    0.69523    0.87791    1.000
    N1030    N        0.08844    0.68679    0.89139    1.000
    N1031    N        0.06546    0.68940    0.96000    1.000
    Si1032   Si       0.08594    0.66672    0.92982    1.000
    N1033    N        0.03308    0.65537    0.88479    1.000
    N1034    N        0.16005    0.66027    0.86924    1.000
    Si1035   Si       0.13276    0.68782    0.89328    1.000
    N1036    N        0.19856    0.68534    0.92255    1.000
    N1037    N        0.17437    0.66988    0.98573    1.000
    Si1038   Si       0.21197    0.67064    0.96161    1.000
    N1039    N        0.12920    0.66570    0.93149    1.000
    N1040    N        0.06604    0.75268    0.09187    1.000
    Si1041   Si       0.04892    0.72970    0.05862    1.000
    N1042    N        0.02353    0.76027    0.03942    1.000
    N1043    N        0.08823    0.76912    0.02103    1.000
    N1044    N        0.20518    0.74685    0.07922    1.000
    Si1045   Si       0.16254    0.74198    0.07204    1.000
    N1046    N        0.22222    0.75884    0.01030    1.000
    Si1047   Si       0.12823    0.75497    0.02398    1.000
    Si1048   Si       0.22657    0.72996    0.04316    1.000
    N1049    N        0.15511    0.72281    0.11131    1.000
    N1050    N        0.14585    0.71856    0.03864    1.000
    Si1051   Si       0.19942    0.72003    0.11728    1.000
    Si1052   Si       0.06624    0.73556    0.13114    1.000
    N1053    N        0.02385    0.72912    0.21757    1.000
    Si1054   Si       0.01033    0.73736    0.17808    1.000
    N1055    N        0.02740    0.72125    0.14139    1.000
    N1056    N        0.07713    0.76960    0.15636    1.000
    N1057    N        0.20264    0.72797    0.16395    1.000
    Si1058   Si       0.23038    0.75571    0.18296    1.000
    N1059    N        0.22394    0.74545    0.22621    1.000
    Si1060   Si       0.13298    0.71822    0.22291    1.000
    N1061    N        0.13063    0.73512    0.18251    1.000
    Si1062   Si       0.99241    0.74213    0.24789    1.000
    N1063    N        0.06639    0.73319    0.35133    1.000
    N1064    N        0.01012    0.75319    0.28881    1.000
    Si1065   Si       0.09758    0.75109    0.32430    1.000
    N1066    N        0.99761    0.73428    0.36625    1.000
    N1067    N        0.08186    0.76378    0.28386    1.000
    Si1068   Si       0.99148    0.72941    0.32076    1.000
    Si1069   Si       0.21182    0.77026    0.44835    1.000
    N1070    N        0.12628    0.72297    0.31260    1.000
    N1071    N        0.19198    0.73206    0.35256    1.000
    Si1072   Si       0.18832    0.74401    0.25727    1.000
    Si1073   Si       0.17271    0.73737    0.39028    1.000
    N1074    N        0.06831    0.77300    0.48362    1.000
    Si1075   Si       0.03816    0.74987    0.38004    1.000
    N1076    N        0.04452    0.74710    0.42394    1.000
    Si1077   Si       0.00902    0.75057    0.44937    1.000
    Si1078   Si       0.07964    0.75778    0.44621    1.000
    N1079    N        0.01794    0.73608    0.48895    1.000
    N1080    N        0.11820    0.73939    0.44423    1.000
    Si1081   Si       0.22950    0.73022    0.37501    1.000
    N1082    N        0.20932    0.74943    0.41029    1.000
    N1083    N        0.20907    0.73945    0.47984    1.000
    N1084    N        0.14728    0.75089    0.24640    1.000
    N1085    N        0.07399    0.73450    0.54469    1.000
    Si1086   Si       0.08851    0.75415    0.58011    1.000
    Si1087   Si       0.04719    0.75477    0.51668    1.000
    N1088    N        0.10355    0.72647    0.61112    1.000
    N1089    N        0.15311    0.72534    0.52233    1.000
    Si1090   Si       0.19619    0.73360    0.52031    1.000
    Si1091   Si       0.14483    0.76645    0.53698    1.000
    N1092    N        0.18983    0.77009    0.54506    1.000
    Si1093   Si       0.01696    0.75156    0.69985    1.000
    N1094    N        0.05571    0.73974    0.71770    1.000
    Si1095   Si       0.09067    0.75802    0.69780    1.000
    N1096    N        0.02996    0.75192    0.65815    1.000
    Si1097   Si       0.01170    0.72107    0.63587    1.000
    N1098    N        0.11666    0.77009    0.72898    1.000
    N1099    N        0.16004    0.77086    0.63154    1.000
    N1100    N        0.23017    0.75474    0.64880    1.000
    Si1101   Si       0.13651    0.73354    0.63761    1.000
    Si1102   Si       0.15514    0.74591    0.72202    1.000
    N1103    N        0.11657    0.72732    0.67749    1.000
    N1104    N        0.04351    0.75632    0.82311    1.000
    N1105    N        0.10002    0.76562    0.86860    1.000
    N1106    N        0.10604    0.76669    0.79719    1.000
    Si1107   Si       0.02493    0.71674    0.81186    1.000
    N1108    N        0.22081    0.74774    0.76751    1.000
    Si1109   Si       0.21593    0.74604    0.84152    1.000
    N1110    N        0.15439    0.73322    0.76818    1.000
    Si1111   Si       0.13783    0.74691    0.85783    1.000
    Si1112   Si       0.12049    0.72556    0.79218    1.000
    N1113    N        0.17370    0.76698    0.84727    1.000
    Si1114   Si       0.19393    0.71696    0.77733    1.000
    N1115    N        0.00764    0.72577    0.95907    1.000
    N1116    N        0.08022    0.75840    0.93976    1.000
    N1117    N        0.03402    0.72668    0.90213    1.000
    Si1118   Si       0.99595    0.74287    0.92085    1.000
    Si1119   Si       0.05004    0.72740    0.94336    1.000
    N1120    N        0.19443    0.75258    0.94524    1.000
    Si1121   Si       0.19583    0.72561    0.90950    1.000
    N1122    N        0.15458    0.72569    0.89337    1.000
    Si1123   Si       0.22983    0.74414    0.97008    1.000
    N1124    N        0.13236    0.75871    0.98049    1.000
    N1125    N        0.22678    0.74281    0.88408    1.000
    Si1126   Si       0.06688    0.79853    0.09263    1.000
    N1127    N        0.05548    0.82103    0.05444    1.000
    Si1128   Si       0.05111    0.79046    0.02585    1.000
    N1129    N        0.10767    0.81328    0.10296    1.000
    N1130    N        0.03915    0.81665    0.12022    1.000
    N1131    N        0.21431    0.81731    0.05164    1.000
    Si1132   Si       0.14700    0.81380    0.08617    1.000
    N1133    N        0.18071    0.80482    0.10993    1.000
    Si1134   Si       0.21407    0.79105    0.08523    1.000
    Si1135   Si       0.21299    0.80230    0.01063    1.000
    N1136    N        0.14598    0.77976    0.05776    1.000
    N1137    N        0.09887    0.78861    0.21846    1.000
    Si1138   Si       0.04475    0.80043    0.15873    1.000
    Si1139   Si       0.07021    0.82022    0.22343    1.000
    N1140    N        0.00966    0.78164    0.17453    1.000
    Si1141   Si       0.99175    0.81562    0.24555    1.000
    Si1142   Si       0.11286    0.77449    0.17931    1.000
    N1143    N        0.14320    0.80167    0.16666    1.000
    N1144    N        0.22104    0.79503    0.17108    1.000
    Si1145   Si       0.18362    0.80816    0.15426    1.000
    N1146    N        0.03387    0.80576    0.24534    1.000
    Si1147   Si       0.06584    0.81262    0.34479    1.000
    N1148    N        0.04577    0.81581    0.30816    1.000
    N1149    N        0.10234    0.79031    0.34390    1.000
    Si1150   Si       0.04188    0.78071    0.28022    1.000
    N1151    N        0.17514    0.79316    0.45553    1.000
    N1152    N        0.03764    0.79329    0.37339    1.000
    Si1153   Si       0.11411    0.77960    0.25881    1.000
    N1154    N        0.13153    0.81493    0.27624    1.000
    N1155    N        0.19363    0.78154    0.28012    1.000
    Si1156   Si       0.17072    0.81374    0.29723    1.000
    N1157    N        0.16781    0.81727    0.33905    1.000
    Si1158   Si       0.23678    0.78664    0.28552    1.000
    N1159    N        0.99959    0.79281    0.43102    1.000
    N1160    N        0.09895    0.79858    0.43716    1.000
    Si1161   Si       0.09778    0.81010    0.48137    1.000
    Si1162   Si       0.00133    0.81172    0.39113    1.000
    N1163    N        0.98860    0.81076    0.49101    1.000
    Si1164   Si       0.13533    0.80450    0.36679    1.000
    N1165    N        0.14966    0.77306    0.39165    1.000
    Si1166   Si       0.13823    0.77919    0.43501    1.000
    Si1167   Si       0.16143    0.81654    0.49020    1.000
    Si1168   Si       0.03382    0.80423    0.57998    1.000
    N1169    N        0.03346    0.78833    0.53951    1.000
    N1170    N        0.99520    0.80045    0.60036    1.000
    Si1171   Si       0.02837    0.82000    0.50920    1.000
    N1172    N        0.06048    0.77854    0.60240    1.000
    Si1173   Si       0.20776    0.81050    0.55372    1.000
    Si1174   Si       0.14555    0.80088    0.60250    1.000
    N1175    N        0.17612    0.82697    0.58632    1.000
    N1176    N        0.13011    0.78739    0.50295    1.000
    N1177    N        0.12652    0.77924    0.57194    1.000
    N1178    N        0.23418    0.80966    0.59163    1.000
    N1179    N        0.11448    0.82741    0.62229    1.000
    Si1180   Si       0.19241    0.77750    0.65937    1.000
    Si1181   Si       0.98853    0.82126    0.63680    1.000
    N1182    N        0.02645    0.81986    0.65621    1.000
    Si1183   Si       0.05300    0.78611    0.64402    1.000
    N1184    N        0.08533    0.79132    0.67187    1.000
    N1185    N        0.00136    0.78578    0.72410    1.000
    Si1186   Si       0.10678    0.82961    0.66492    1.000
    N1187    N        0.17524    0.77654    0.69789    1.000
    N1188    N        0.21038    0.82123    0.65555    1.000
    Si1189   Si       0.16867    0.81466    0.71709    1.000
    N1190    N        0.17867    0.83233    0.52573    1.000
    N1191    N        0.03270    0.81339    0.78601    1.000
    Si1192   Si       0.01683    0.79100    0.82052    1.000
    N1193    N        0.07627    0.81979    0.83405    1.000
    N1194    N        0.01554    0.81749    0.85797    1.000
    Si1195   Si       0.08198    0.77491    0.83161    1.000
    Si1196   Si       0.01067    0.82091    0.74885    1.000
    Si1197   Si       0.12123    0.79318    0.76660    1.000
    N1198    N        0.16196    0.80735    0.76056    1.000
    Si1199   Si       0.19163    0.80746    0.84908    1.000
    N1200    N        0.22927    0.79123    0.83402    1.000
    Si1201   Si       0.16214    0.77823    0.95667    1.000
    Si1202   Si       0.05554    0.83161    0.87039    1.000
    N1203    N        0.04637    0.79603    0.98069    1.000
    Si1204   Si       0.09579    0.78215    0.90836    1.000
    Si1205   Si       0.00437    0.80389    0.96780    1.000
    N1206    N        0.06879    0.81641    0.90957    1.000
    N1207    N        0.10293    0.82104    0.97639    1.000
    Si1208   Si       0.09045    0.77749    0.97834    1.000
    N1209    N        0.13842    0.79315    0.91996    1.000
    Si1210   Si       0.15089    0.83132    0.90774    1.000
    N1211    N        0.18950    0.81890    0.89061    1.000
    N1212    N        0.17585    0.80911    0.98706    1.000
    N1213    N        0.10192    0.83391    0.77109    1.000
    Si1214   Si       0.06387    0.83290    0.95041    1.000
    Si1215   Si       0.22694    0.83647    0.90148    1.000
    Si1216   Si       0.05680    0.86518    0.04902    1.000
    N1217    N        0.02305    0.87579    0.07620    1.000
    N1218    N        0.05831    0.88276    0.00800    1.000
    N1219    N        0.09111    0.88442    0.06841    1.000
    Si1220   Si       0.03029    0.86165    0.11650    1.000
    N1221    N        0.15568    0.85261    0.06731    1.000
    Si1222   Si       0.19836    0.85821    0.06172    1.000
    N1223    N        0.21813    0.87541    0.09649    1.000
    N1224    N        0.13204    0.87597    0.00657    1.000
    Si1225   Si       0.12904    0.88123    0.05143    1.000
    N1226    N        0.20577    0.88471    0.02852    1.000
    Si1227   Si       0.07764    0.87297    0.16948    1.000
    N1228    N        0.00223    0.87891    0.14356    1.000
    N1229    N        0.06833    0.88186    0.12934    1.000
    N1230    N        0.08841    0.85438    0.23980    1.000
    Si1231   Si       0.05853    0.88854    0.23925    1.000
    N1232    N        0.06329    0.83267    0.18197    1.000
    N1233    N        0.15778    0.84511    0.21995    1.000
    Si1234   Si       0.19685    0.86216    0.20683    1.000
    N1235    N        0.18406    0.85106    0.16428    1.000
    Si1236   Si       0.14250    0.84321    0.17983    1.000
    Si1237   Si       0.20397    0.87800    0.13791    1.000
    N1238    N        0.12115    0.87795    0.17006    1.000
    N1239    N        0.23747    0.84799    0.21150    1.000
    Si1240   Si       0.02188    0.84975    0.29422    1.000
    N1241    N        0.01683    0.87735    0.32683    1.000
    N1242    N        0.07243    0.85315    0.36030    1.000
    Si1243   Si       0.03490    0.87543    0.36537    1.000
    N1244    N        0.02356    0.87161    0.25658    1.000
    N1245    N        0.19388    0.85035    0.29356    1.000
    Si1246   Si       0.17048    0.85520    0.36383    1.000
    Si1247   Si       0.13014    0.85353    0.25298    1.000
    N1248    N        0.13780    0.88895    0.27374    1.000
    N1249    N        0.15662    0.88814    0.33931    1.000
    Si1250   Si       0.23291    0.85166    0.31208    1.000
    Si1251   Si       0.17295    0.88802    0.29894    1.000
    N1252    N        0.01209    0.85339    0.39450    1.000
    Si1253   Si       0.10182    0.87232    0.38531    1.000
    N1254    N        0.08602    0.87228    0.42553    1.000
    Si1255   Si       0.98944    0.87858    0.42062    1.000
    N1256    N        0.13546    0.84397    0.38638    1.000
    Si1257   Si       0.11877    0.87437    0.45436    1.000
    N1258    N        0.19870    0.86918    0.39562    1.000
    N1259    N        0.12971    0.83976    0.47528    1.000
    Si1260   Si       0.23959    0.85851    0.38706    1.000
    Si1261   Si       0.02852    0.87495    0.56147    1.000
    Si1262   Si       0.09563    0.85163    0.59041    1.000
    Si1263   Si       0.08787    0.87061    0.51628    1.000
    N1264    N        0.05251    0.84390    0.58294    1.000
    N1265    N        0.00722    0.85119    0.53446    1.000
    N1266    N        0.06830    0.83521    0.49848    1.000
    N1267    N        0.11522    0.85797    0.55018    1.000
    Si1268   Si       0.15978    0.86404    0.55100    1.000
    N1269    N        0.22712    0.87626    0.53920    1.000
    N1270    N        0.23512    0.87207    0.61339    1.000
    Si1271   Si       0.20845    0.83847    0.61559    1.000
    N1272    N        0.14072    0.84039    0.69147    1.000
    N1273    N        0.01125    0.88501    0.67152    1.000
    Si1274   Si       0.03824    0.85197    0.68233    1.000
    N1275    N        0.08000    0.86380    0.67037    1.000
    N1276    N        0.03366    0.84919    0.72583    1.000
    N1277    N        0.20363    0.83967    0.71964    1.000
    Si1278   Si       0.13524    0.88639    0.69533    1.000
    Si1279   Si       0.23261    0.84062    0.68671    1.000
    Si1280   Si       0.19538    0.87923    0.73517    1.000
    N1281    N        0.04763    0.87934    0.78331    1.000
    Si1282   Si       0.06674    0.84272    0.79406    1.000
    N1283    N        0.15727    0.85489    0.94559    1.000
    N1284    N        0.06467    0.87388    0.87298    1.000
    N1285    N        0.11659    0.88350    0.81142    1.000
    Si1286   Si       0.12672    0.87046    0.77051    1.000
    Si1287   Si       0.14632    0.86776    0.84019    1.000
    N1288    N        0.17070    0.87070    0.76801    1.000
    N1289    N        0.22990    0.83960    0.78623    1.000
    N1290    N        0.22901    0.85994    0.86590    1.000
    Si1291   Si       0.18764    0.83314    0.78423    1.000
    Si1292   Si       0.99716    0.87816    0.93454    1.000
    N1293    N        0.01541    0.84126    0.94891    1.000
    N1294    N        0.00113    0.88011    0.89056    1.000
    N1295    N        0.08500    0.87254    0.94276    1.000
    Si1296   Si       0.09809    0.88402    0.90067    1.000
    Si1297   Si       0.09534    0.88847    0.98380    1.000
    N1298    N        0.22541    0.86208    0.93719    1.000
    Si1299   Si       0.14051    0.83767    0.98270    1.000
    N1300    N        0.12992    0.85870    0.88183    1.000
    Si1301   Si       0.18878    0.88304    0.94371    1.000
    N1302    N        0.16946    0.83448    0.82339    1.000
    Si1303   Si       0.02892    0.88882    0.74626    1.000
    Si1304   Si       0.08918    0.90948    0.10296    1.000
    Si1305   Si       0.02625    0.91102    0.99985    1.000
    Si1306   Si       0.20542    0.93110    0.19131    1.000
    N1307    N        0.06366    0.94776    0.10498    1.000
    N1308    N        0.03875    0.94963    0.01367    1.000
    Si1309   Si       0.14216    0.91400    0.15460    1.000
    N1310    N        0.99958    0.94785    0.08293    1.000
    N1311    N        0.13112    0.92151    0.11355    1.000
    N1312    N        0.14991    0.92076    0.04837    1.000
    Si1313   Si       0.17084    0.90564    0.01225    1.000
    Si1314   Si       0.14971    0.94722    0.08148    1.000
    Si1315   Si       0.01074    0.90741    0.17706    1.000
    N1316    N        0.04897    0.89671    0.19641    1.000
    N1317    N        0.18689    0.91401    0.15510    1.000
    N1318    N        0.19428    0.90208    0.21997    1.000
    N1319    N        0.12324    0.94358    0.17968    1.000
    N1320    N        0.07319    0.92048    0.26307    1.000
    N1321    N        0.00480    0.94363    0.29818    1.000
    N1322    N        0.14734    0.90172    0.43912    1.000
    Si1323   Si       0.11466    0.92395    0.27370    1.000
    N1324    N        0.20747    0.91737    0.30202    1.000
    Si1325   Si       0.13979    0.92635    0.34797    1.000
    N1326    N        0.12477    0.94344    0.31080    1.000
    N1327    N        0.20427    0.93830    0.42470    1.000
    N1328    N        0.10962    0.91494    0.37662    1.000
    Si1329   Si       0.99262    0.93183    0.44956    1.000
    N1330    N        0.01963    0.89745    0.44798    1.000
    N1331    N        0.04426    0.91094    0.38640    1.000
    Si1332   Si       0.05673    0.90181    0.42685    1.000
    N1333    N        0.08080    0.93995    0.43289    1.000
    Si1334   Si       0.07642    0.94146    0.38342    1.000
    N1335    N        0.10355    0.89819    0.48826    1.000
    N1336    N        0.21282    0.89336    0.46720    1.000
    Si1337   Si       0.19001    0.89768    0.42915    1.000
    Si1338   Si       0.12404    0.94019    0.44321    1.000
    Si1339   Si       0.02992    0.93284    0.60623    1.000
    Si1340   Si       0.06786    0.93688    0.53787    1.000
    N1341    N        0.00638    0.89781    0.59106    1.000
    N1342    N        0.05795    0.89545    0.53743    1.000
    N1343    N        0.10067    0.89472    0.60527    1.000
    N1344    N        0.11147    0.93456    0.54714    1.000
    Si1345   Si       0.12853    0.91951    0.58376    1.000
    Si1346   Si       0.13212    0.92376    0.51057    1.000
    Si1347   Si       0.18617    0.92660    0.60516    1.000
    N1348    N        0.21667    0.93582    0.57794    1.000
    Si1349   Si       0.20637    0.89820    0.51021    1.000
    N1350    N        0.22072    0.94007    0.51132    1.000
    N1351    N        0.16461    0.89674    0.51944    1.000
    N1352    N        0.16494    0.89369    0.58378    1.000
    Si1353   Si       0.23569    0.89592    0.57575    1.000
    Si1354   Si       0.08952    0.89865    0.64636    1.000
    N1355    N        0.04989    0.91827    0.72067    1.000
    N1356    N        0.05638    0.92802    0.64188    1.000
    Si1357   Si       0.08963    0.92909    0.73508    1.000
    Si1358   Si       0.03610    0.92187    0.67941    1.000
    N1359    N        0.00214    0.94482    0.69025    1.000
    N1360    N        0.11996    0.91888    0.67057    1.000
    Si1361   Si       0.19157    0.93595    0.68388    1.000
    N1362    N        0.20550    0.92623    0.64321    1.000
    N1363    N        0.17534    0.90121    0.70377    1.000
    N1364    N        0.22833    0.95077    0.70202    1.000
    N1365    N        0.11601    0.89359    0.73421    1.000
    N1366    N        0.01255    0.91627    0.83160    1.000
    Si1367   Si       0.04663    0.92086    0.80219    1.000
    N1368    N        0.08370    0.93312    0.77698    1.000
    N1369    N        0.07507    0.93534    0.83861    1.000
    N1370    N        0.01752    0.93936    0.77402    1.000
    Si1371   Si       0.10899    0.92626    0.80998    1.000
    Si1372   Si       0.03150    0.90075    0.86739    1.000
    N1373    N        0.17512    0.90025    0.84575    1.000
    Si1374   Si       0.17920    0.93923    0.82809    1.000
    N1375    N        0.14432    0.95086    0.80423    1.000
    N1376    N        0.21640    0.95144    0.81078    1.000
    N1377    N        0.23295    0.89725    0.74841    1.000
    N1378    N        0.04447    0.93322    0.89609    1.000
    N1379    N        0.09377    0.93085    0.97790    1.000
    Si1380   Si       0.02292    0.94307    0.93107    1.000
    N1381    N        0.01914    0.90939    0.95718    1.000
    Si1382   Si       0.08012    0.94978    0.88053    1.000
    Si1383   Si       0.15386    0.93713    0.89473    1.000
    N1384    N        0.23697    0.94992    0.93968    1.000
    Si1385   Si       0.20746    0.89555    0.87543    1.000
    N1386    N        0.11363    0.92522    0.89712    1.000
    N1387    N        0.18205    0.91687    0.97219    1.000
    N1388    N        0.18474    0.90826    0.91016    1.000
    Si1389   Si       0.19247    0.95053    0.95020    1.000
    N1390    N        0.04913    0.99660    0.06080    1.000
    Si1391   Si       0.08012    0.98678    0.09497    1.000
    Si1392   Si       0.01634    0.96940    0.04625    1.000
    Si1393   Si       0.02412    0.95904    0.11548    1.000
    N1394    N        0.09153    0.99836    0.00133    1.000
    N1395    N        0.01545    0.00408    0.12097    1.000
    N1396    N        0.11866    0.98060    0.07907    1.000
    Si1397   Si       0.22186    0.99467    0.08523    1.000
    N1398    N        0.18180    0.97735    0.08600    1.000
    N1399    N        0.01816    0.97019    0.23766    1.000
    Si1400   Si       0.99184    0.99889    0.16123    1.000
    N1401    N        0.08408    0.00221    0.13565    1.000
    N1402    N        0.01022    0.94926    0.15780    1.000
    Si1403   Si       0.14270    0.96641    0.20939    1.000
    N1404    N        0.18727    0.96946    0.19973    1.000
    Si1405   Si       0.20649    0.00704    0.21394    1.000
    N1406    N        0.13798    0.95530    0.24977    1.000
    N1407    N        0.06001    0.98252    0.28876    1.000
    N1408    N        0.00379    0.99751    0.33863    1.000
    Si1409   Si       0.04657    0.99570    0.32927    1.000
    N1410    N        0.06407    0.97187    0.35757    1.000
    Si1411   Si       0.03800    0.94918    0.27114    1.000
    Si1412   Si       0.14361    0.97615    0.28919    1.000
    N1413    N        0.18303    0.98272    0.30699    1.000
    Si1414   Si       0.20193    0.95021    0.33050    1.000
    N1415    N        0.17269    0.94843    0.36209    1.000
    N1416    N        0.19882    0.98659    0.47220    1.000
    N1417    N        0.08415    0.00150    0.46011    1.000
    N1418    N        0.01563    0.96952    0.45538    1.000
    Si1419   Si       0.05849    0.96720    0.45898    1.000
    Si1420   Si       0.22105    0.94936    0.46502    1.000
    N1421    N        0.13235    0.95913    0.48456    1.000
    Si1422   Si       0.18014    0.96652    0.40109    1.000
    N1423    N        0.14552    0.97250    0.42562    1.000
    Si1424   Si       0.15563    0.99111    0.46433    1.000
    N1425    N        0.19454    0.00704    0.39744    1.000
    Si1426   Si       0.07244    0.99224    0.57504    1.000
    N1427    N        0.05455    0.95294    0.57422    1.000
    N1428    N        0.00669    0.96979    0.61859    1.000
    N1429    N        0.06472    0.96256    0.50287    1.000
    Si1430   Si       0.10012    0.99243    0.49949    1.000
    Si1431   Si       0.14219    0.99520    0.61382    1.000
    N1432    N        0.20472    0.99931    0.54184    1.000
    Si1433   Si       0.22849    0.96327    0.54831    1.000
    N1434    N        0.15194    0.95436    0.60061    1.000
    Si1435   Si       0.10549    0.00617    0.72610    1.000
    N1436    N        0.10332    0.96488    0.71531    1.000
    N1437    N        0.03923    0.99774    0.72839    1.000
    Si1438   Si       0.01660    0.95888    0.73436    1.000
    Si1439   Si       0.12722    0.96000    0.68013    1.000
    Si1440   Si       0.17741    0.00216    0.72090    1.000
    N1441    N        0.16659    0.97070    0.69391    1.000
    N1442    N        0.11993    0.98929    0.65119    1.000
    N1443    N        0.11259    0.00392    0.77031    1.000
    Si1444   Si       0.14962    0.98941    0.78703    1.000
    N1445    N        0.18500    0.99124    0.76214    1.000
    Si1446   Si       0.22500    0.98522    0.78361    1.000
    N1447    N        0.17220    0.96426    0.86460    1.000
    Si1448   Si       0.17036    0.00683    0.85768    1.000
    N1449    N        0.04590    0.97496    0.94959    1.000
    Si1450   Si       0.04932    0.00495    0.91885    1.000
    N1451    N        0.07830    0.99308    0.88849    1.000
    Si1452   Si       0.06815    0.96341    0.98522    1.000
    Si1453   Si       0.15793    0.00916    0.92531    1.000
    N1454    N        0.19978    0.97999    0.98218    1.000
    N1455    N        0.15879    0.96636    0.92878    1.000
    Si1456   Si       0.26313    0.03970    0.04239    1.000
    N1457    N        0.27768    0.05472    0.08120    1.000
    N1458    N        0.34943    0.05692    0.06755    1.000
    Si1459   Si       0.25103    0.06066    0.11443    1.000
    Si1460   Si       0.31864    0.06165    0.09607    1.000
    Si1461   Si       0.38397    0.06737    0.23742    1.000
    Si1462   Si       0.38117    0.02816    0.06608    1.000
    N1463    N        0.41942    0.04403    0.05665    1.000
    N1464    N        0.47968    0.04492    0.03008    1.000
    Si1465   Si       0.45185    0.01830    0.05154    1.000
    N1466    N        0.38745    0.01098    0.10466    1.000
    N1467    N        0.32606    0.03253    0.12647    1.000
    Si1468   Si       0.29796    0.02351    0.15843    1.000
    N1469    N        0.26807    0.05462    0.15414    1.000
    N1470    N        0.32103    0.02879    0.19518    1.000
    Si1471   Si       0.30885    0.04753    0.23175    1.000
    Si1472   Si       0.36371    0.01535    0.19566    1.000
    Si1473   Si       0.48214    0.03705    0.11979    1.000
    N1474    N        0.44085    0.03134    0.13999    1.000
    N1475    N        0.46035    0.03443    0.20563    1.000
    Si1476   Si       0.43045    0.04912    0.17785    1.000
    N1477    N        0.39121    0.04807    0.19713    1.000
    Si1478   Si       0.32642    0.01922    0.33169    1.000
    N1479    N        0.25196    0.02152    0.36309    1.000
    N1480    N        0.31541    0.06063    0.32250    1.000
    N1481    N        0.24196    0.02168    0.29008    1.000
    N1482    N        0.34185    0.01196    0.37220    1.000
    Si1483   Si       0.24174    0.04462    0.32884    1.000
    N1484    N        0.36169    0.01049    0.30728    1.000
    N1485    N        0.48819    0.04512    0.26486    1.000
    N1486    N        0.41245    0.04880    0.26355    1.000
    N1487    N        0.41375    0.04751    0.33760    1.000
    Si1488   Si       0.38961    0.04605    0.30123    1.000
    Si1489   Si       0.45001    0.03180    0.24915    1.000
    N1490    N        0.30232    0.05243    0.46947    1.000
    Si1491   Si       0.34633    0.04767    0.39640    1.000
    N1492    N        0.36026    0.03114    0.43644    1.000
    N1493    N        0.26269    0.02095    0.42943    1.000
    Si1494   Si       0.34421    0.05933    0.46731    1.000
    Si1495   Si       0.28726    0.00926    0.46448    1.000
    Si1496   Si       0.28228    0.05871    0.42723    1.000
    Si1497   Si       0.40034    0.02143    0.48435    1.000
    N1498    N        0.42397    0.04579    0.45825    1.000
    Si1499   Si       0.41408    0.04962    0.41741    1.000
    N1500    N        0.41087    0.00887    0.39982    1.000
    N1501    N        0.30268    0.01183    0.25527    1.000
    N1502    N        0.37098    0.05098    0.49846    1.000
    N1503    N        0.31264    0.03364    0.54389    1.000
    N1504    N        0.34041    0.04655    0.61039    1.000
    N1505    N        0.28090    0.05788    0.59331    1.000
    Si1506   Si       0.32300    0.06464    0.57137    1.000
    Si1507   Si       0.30044    0.03311    0.62348    1.000
    Si1508   Si       0.38335    0.05213    0.59689    1.000
    N1509    N        0.48333    0.03909    0.50151    1.000
    Si1510   Si       0.34649    0.06801    0.64910    1.000
    N1511    N        0.39230    0.00922    0.58798    1.000
    N1512    N        0.34833    0.02258    0.68366    1.000
    N1513    N        0.31174    0.05378    0.73237    1.000
    N1514    N        0.29972    0.05794    0.65902    1.000
    Si1515   Si       0.30793    0.03251    0.69521    1.000
    N1516    N        0.38908    0.05447    0.65077    1.000
    Si1517   Si       0.38061    0.04919    0.69605    1.000
    N1518    N        0.38361    0.03030    0.73627    1.000
    N1519    N        0.45590    0.01485    0.73511    1.000
    Si1520   Si       0.42970    0.05014    0.63998    1.000
    N1521    N        0.30030    0.02663    0.84310    1.000
    N1522    N        0.35051    0.03900    0.79684    1.000
    Si1523   Si       0.34374    0.03197    0.75367    1.000
    Si1524   Si       0.34243    0.01591    0.83336    1.000
    N1525    N        0.35958    0.02993    0.87072    1.000
    N1526    N        0.47240    0.01856    0.80320    1.000
    N1527    N        0.41872    0.04142    0.83817    1.000
    Si1528   Si       0.46249    0.04236    0.76789    1.000
    N1529    N        0.25229    0.05639    0.92102    1.000
    Si1530   Si       0.33249    0.04391    0.90313    1.000
    N1531    N        0.31743    0.04439    0.98278    1.000
    Si1532   Si       0.26612    0.01512    0.92534    1.000
    N1533    N        0.35786    0.05893    0.93445    1.000
    Si1534   Si       0.35940    0.04474    0.97670    1.000
    Si1535   Si       0.48967    0.03813    0.98852    1.000
    N1536    N        0.41167    0.01668    0.91130    1.000
    N1537    N        0.46139    0.04670    0.95678    1.000
    Si1538   Si       0.40085    0.04051    0.87779    1.000
    Si1539   Si       0.29428    0.06693    0.85167    1.000
    N1540    N        0.30964    0.00982    0.91774    1.000
    Si1541   Si       0.45048    0.01320    0.93364    1.000
    N1542    N        0.38240    0.00859    0.97714    1.000
    N1543    N        0.31577    0.10212    0.02506    1.000
    N1544    N        0.31813    0.10620    0.10535    1.000
    Si1545   Si       0.35473    0.08639    0.03648    1.000
    N1546    N        0.24316    0.10325    0.11814    1.000
    N1547    N        0.42890    0.11501    0.10208    1.000
    N1548    N        0.43361    0.11306    0.02653    1.000
    N1549    N        0.37494    0.11856    0.05414    1.000
    N1550    N        0.37502    0.07721    0.00073    1.000
    Si1551   Si       0.47151    0.12560    0.00878    1.000
    Si1552   Si       0.41686    0.12701    0.06382    1.000
    Si1553   Si       0.40209    0.11052    0.99634    1.000
    Si1554   Si       0.28284    0.12063    0.12573    1.000
    N1555    N        0.28692    0.11798    0.16803    1.000
    N1556    N        0.27928    0.07831    0.22443    1.000
    Si1557   Si       0.26138    0.08546    0.18410    1.000
    N1558    N        0.35504    0.11043    0.17023    1.000
    Si1559   Si       0.28328    0.11720    0.24382    1.000
    Si1560   Si       0.47091    0.10697    0.19149    1.000
    N1561    N        0.39648    0.10909    0.22716    1.000
    Si1562   Si       0.39593    0.10964    0.18365    1.000
    N1563    N        0.43333    0.09211    0.17241    1.000
    N1564    N        0.46083    0.10552    0.23389    1.000
    N1565    N        0.25849    0.06928    0.00948    1.000
    N1566    N        0.25422    0.08580    0.33788    1.000
    N1567    N        0.29928    0.11336    0.28354    1.000
    Si1568   Si       0.33148    0.08463    0.28961    1.000
    Si1569   Si       0.29466    0.08393    0.35430    1.000
    N1570    N        0.37278    0.08801    0.30145    1.000
    N1571    N        0.47190    0.09106    0.33780    1.000
    Si1572   Si       0.43482    0.07968    0.35776    1.000
    N1573    N        0.41788    0.11939    0.35366    1.000
    Si1574   Si       0.27933    0.08953    0.48051    1.000
    N1575    N        0.34867    0.09881    0.45095    1.000
    N1576    N        0.25865    0.09249    0.44153    1.000
    N1577    N        0.30704    0.06806    0.39279    1.000
    N1578    N        0.30596    0.12332    0.49568    1.000
    N1579    N        0.41060    0.12056    0.44213    1.000
    N1580    N        0.47689    0.09255    0.45962    1.000
    N1581    N        0.44723    0.06967    0.39656    1.000
    Si1582   Si       0.47223    0.09973    0.41540    1.000
    N1583    N        0.38234    0.07425    0.39739    1.000
    Si1584   Si       0.37526    0.11133    0.41995    1.000
    Si1585   Si       0.45204    0.06570    0.48409    1.000
    N1586    N        0.34136    0.06876    0.24877    1.000
    N1587    N        0.31450    0.10815    0.56614    1.000
    N1588    N        0.25553    0.09551    0.51640    1.000
    Si1589   Si       0.24552    0.07830    0.59359    1.000
    Si1590   Si       0.28660    0.12231    0.53567    1.000
    Si1591   Si       0.45057    0.10228    0.61108    1.000
    N1592    N        0.43269    0.08317    0.51855    1.000
    Si1593   Si       0.46162    0.10854    0.54043    1.000
    N1594    N        0.47821    0.09549    0.57712    1.000
    Si1595   Si       0.38904    0.08235    0.52459    1.000
    N1596    N        0.36782    0.07585    0.56205    1.000
    N1597    N        0.37737    0.12363    0.50853    1.000
    N1598    N        0.42183    0.07345    0.60099    1.000
    Si1599   Si       0.43828    0.10450    0.68176    1.000
    N1600    N        0.35349    0.10622    0.62610    1.000
    N1601    N        0.27713    0.11983    0.64832    1.000
    Si1602   Si       0.26300    0.08023    0.65907    1.000
    Si1603   Si       0.32713    0.09458    0.72523    1.000
    Si1604   Si       0.25636    0.11879    0.72448    1.000
    N1605    N        0.35162    0.09058    0.68854    1.000
    N1606    N        0.29848    0.12734    0.72475    1.000
    N1607    N        0.46042    0.08211    0.65126    1.000
    Si1608   Si       0.36685    0.12471    0.66464    1.000
    N1609    N        0.41580    0.07897    0.70970    1.000
    Si1610   Si       0.34820    0.12620    0.58782    1.000
    Si1611   Si       0.40185    0.08701    0.74916    1.000
    N1612    N        0.31621    0.09374    0.82246    1.000
    Si1613   Si       0.35222    0.08208    0.80144    1.000
    N1614    N        0.25282    0.07821    0.84628    1.000
    N1615    N        0.35876    0.08662    0.75667    1.000
    Si1616   Si       0.24470    0.12041    0.85659    1.000
    N1617    N        0.24544    0.10914    0.76497    1.000
    N1618    N        0.40439    0.08170    0.88937    1.000
    N1619    N        0.45388    0.10279    0.83704    1.000
    N1620    N        0.38569    0.10436    0.81721    1.000
    Si1621   Si       0.42230    0.08002    0.81822    1.000
    N1622    N        0.48461    0.10959    0.97063    1.000
    N1623    N        0.42976    0.06917    0.77775    1.000
    N1624    N        0.29201    0.10609    0.95629    1.000
    Si1625   Si       0.27665    0.09206    0.91742    1.000
    N1626    N        0.30769    0.07693    0.89139    1.000
    Si1627   Si       0.29644    0.08219    0.99217    1.000
    N1628    N        0.25375    0.12390    0.89974    1.000
    N1629    N        0.46740    0.09615    0.90408    1.000
    Si1630   Si       0.45682    0.08718    0.94569    1.000
    Si1631   Si       0.43624    0.10781    0.87707    1.000
    N1632    N        0.41693    0.10378    0.95371    1.000
    Si1633   Si       0.38554    0.09022    0.92602    1.000
    Si1634   Si       0.29908    0.14281    0.02680    1.000
    N1635    N        0.31165    0.16078    0.06425    1.000
    N1636    N        0.25653    0.13711    0.02612    1.000
    Si1637   Si       0.34257    0.13300    0.07948    1.000
    N1638    N        0.27317    0.16383    0.12074    1.000
    N1639    N        0.36738    0.16302    0.10107    1.000
    N1640    N        0.42153    0.17069    0.06206    1.000
    N1641    N        0.46324    0.16944    0.99930    1.000
    Si1642   Si       0.45554    0.18498    0.03973    1.000
    Si1643   Si       0.32099    0.13507    0.18855    1.000
    N1644    N        0.24641    0.13740    0.23707    1.000
    N1645    N        0.31172    0.14611    0.22811    1.000
    N1646    N        0.33494    0.16915    0.16178    1.000
    Si1647   Si       0.24295    0.18164    0.23161    1.000
    N1648    N        0.47332    0.13869    0.16215    1.000
    Si1649   Si       0.48583    0.17919    0.16279    1.000
    N1650    N        0.43625    0.16743    0.22116    1.000
    N1651    N        0.40345    0.14872    0.15983    1.000
    Si1652   Si       0.36382    0.14533    0.14187    1.000
    Si1653   Si       0.43783    0.12602    0.14191    1.000
    Si1654   Si       0.42913    0.13312    0.24677    1.000
    Si1655   Si       0.35678    0.18046    0.99627    1.000
    Si1656   Si       0.28968    0.14152    0.31413    1.000
    Si1657   Si       0.33157    0.17228    0.25817    1.000
    N1658    N        0.24615    0.15001    0.31733    1.000
    N1659    N        0.30834    0.17868    0.29517    1.000
    N1660    N        0.30313    0.12707    0.35359    1.000
    Si1661   Si       0.43574    0.15298    0.44265    1.000
    N1662    N        0.36438    0.15168    0.33049    1.000
    N1663    N        0.36936    0.15498    0.26710    1.000
    N1664    N        0.47441    0.16177    0.34120    1.000
    Si1665   Si       0.39127    0.15020    0.36506    1.000
    Si1666   Si       0.38484    0.12998    0.29804    1.000
    N1667    N        0.42855    0.13262    0.29102    1.000
    N1668    N        0.49088    0.16782    0.26672    1.000
    Si1669   Si       0.45102    0.12846    0.32767    1.000
    N1670    N        0.45762    0.17072    0.47788    1.000
    Si1671   Si       0.34498    0.12981    0.48105    1.000
    N1672    N        0.29351    0.15750    0.42029    1.000
    N1673    N        0.34230    0.17255    0.47412    1.000
    Si1674   Si       0.25042    0.16709    0.41082    1.000
    Si1675   Si       0.31885    0.15155    0.38420    1.000
    N1676    N        0.36015    0.14317    0.39497    1.000
    N1677    N        0.46203    0.14429    0.40985    1.000
    Si1678   Si       0.48092    0.17320    0.38371    1.000
    N1679    N        0.27584    0.16364    0.54046    1.000
    N1680    N        0.33331    0.16591    0.60308    1.000
    N1681    N        0.26418    0.17589    0.61212    1.000
    Si1682   Si       0.24838    0.16285    0.57483    1.000
    N1683    N        0.40921    0.13257    0.66946    1.000
    N1684    N        0.38101    0.14873    0.56994    1.000
    Si1685   Si       0.39900    0.15218    0.53080    1.000
    N1686    N        0.44067    0.14583    0.54096    1.000
    Si1687   Si       0.47416    0.17548    0.53531    1.000
    Si1688   Si       0.48745    0.17041    0.61161    1.000
    Si1689   Si       0.37020    0.18421    0.59409    1.000
    Si1690   Si       0.25181    0.15515    0.64865    1.000
    N1691    N        0.34370    0.15996    0.67417    1.000
    Si1692   Si       0.30711    0.16249    0.69714    1.000
    N1693    N        0.27884    0.18045    0.67151    1.000
    Si1694   Si       0.30354    0.18112    0.62891    1.000
    N1695    N        0.31905    0.18510    0.73319    1.000
    N1696    N        0.39250    0.18502    0.63352    1.000
    N1697    N        0.45275    0.14380    0.62185    1.000
    Si1698   Si       0.42797    0.16688    0.65002    1.000
    N1699    N        0.46439    0.12967    0.70702    1.000
    Si1700   Si       0.44561    0.14351    0.74195    1.000
    N1701    N        0.27183    0.14705    0.83991    1.000
    N1702    N        0.33337    0.14611    0.78898    1.000
    N1703    N        0.34266    0.14630    0.85736    1.000
    Si1704   Si       0.30155    0.15582    0.76028    1.000
    Si1705   Si       0.31324    0.13498    0.82774    1.000
    N1706    N        0.26627    0.17536    0.77659    1.000
    Si1707   Si       0.25520    0.18157    0.81809    1.000
    Si1708   Si       0.48120    0.17384    0.78263    1.000
    Si1709   Si       0.38205    0.14003    0.84261    1.000
    Si1710   Si       0.37620    0.15564    0.77507    1.000
    N1711    N        0.38583    0.17453    0.81558    1.000
    N1712    N        0.47442    0.17229    0.82488    1.000
    N1713    N        0.47320    0.13117    0.77552    1.000
    N1714    N        0.40509    0.13077    0.75315    1.000
    Si1715   Si       0.48658    0.12922    0.82415    1.000
    N1716    N        0.36743    0.12801    0.92545    1.000
    Si1717   Si       0.29406    0.14932    0.95924    1.000
    N1718    N        0.30720    0.16242    0.91969    1.000
    Si1719   Si       0.34652    0.15701    0.90317    1.000
    Si1720   Si       0.26325    0.16347    0.91076    1.000
    N1721    N        0.25380    0.16328    0.95375    1.000
    N1722    N        0.31689    0.16323    0.99335    1.000
    N1723    N        0.44775    0.18499    0.75803    1.000
    N1724    N        0.41158    0.14511    0.87485    1.000
    Si1725   Si       0.41517    0.18246    0.89541    1.000
    Si1726   Si       0.40021    0.14567    0.94631    1.000
    N1727    N        0.43180    0.17331    0.93455    1.000
    N1728    N        0.38633    0.15050    0.98781    1.000
    N1729    N        0.30046    0.22681    0.08129    1.000
    N1730    N        0.24410    0.19280    0.06778    1.000
    Si1731   Si       0.28404    0.18627    0.08460    1.000
    N1732    N        0.37025    0.19925    0.03359    1.000
    N1733    N        0.45934    0.22752    0.03695    1.000
    N1734    N        0.40421    0.23066    0.08471    1.000
    N1735    N        0.46922    0.23182    0.10563    1.000
    Si1736   Si       0.38682    0.19239    0.07532    1.000
    Si1737   Si       0.37162    0.24048    0.01206    1.000
    Si1738   Si       0.34247    0.20944    0.16811    1.000
    Si1739   Si       0.30301    0.23065    0.22462    1.000
    N1740    N        0.30487    0.22989    0.18257    1.000
    N1741    N        0.35108    0.23079    0.13306    1.000
    N1742    N        0.33798    0.21192    0.24181    1.000
    N1743    N        0.25023    0.18572    0.18930    1.000
    Si1744   Si       0.37517    0.23061    0.22887    1.000
    N1745    N        0.38118    0.20812    0.19160    1.000
    N1746    N        0.44820    0.20362    0.16489    1.000
    N1747    N        0.47108    0.23114    0.23720    1.000
    Si1748   Si       0.47267    0.18880    0.23259    1.000
    Si1749   Si       0.44988    0.24494    0.14395    1.000
    Si1750   Si       0.41546    0.18289    0.18548    1.000
    Si1751   Si       0.47781    0.24606    0.00148    1.000
    Si1752   Si       0.28181    0.21348    0.29112    1.000
    N1753    N        0.32139    0.19450    0.36410    1.000
    N1754    N        0.24122    0.21834    0.31141    1.000
    N1755    N        0.27268    0.20851    0.24821    1.000
    N1756    N        0.36707    0.21994    0.32126    1.000
    N1757    N        0.44026    0.20444    0.30166    1.000
    Si1758   Si       0.40918    0.21438    0.33070    1.000
    N1759    N        0.40839    0.18885    0.36873    1.000
    Si1760   Si       0.44550    0.23785    0.27266    1.000
    Si1761   Si       0.47996    0.18493    0.30507    1.000
    N1762    N        0.27891    0.19476    0.48019    1.000
    Si1763   Si       0.29885    0.22122    0.39011    1.000
    N1764    N        0.31697    0.22151    0.43105    1.000
    N1765    N        0.25766    0.20821    0.39688    1.000
    N1766    N        0.44730    0.24138    0.47623    1.000
    N1767    N        0.41640    0.19053    0.43869    1.000
    N1768    N        0.36579    0.24038    0.47248    1.000
    Si1769   Si       0.42245    0.21408    0.40215    1.000
    N1770    N        0.46702    0.21604    0.39271    1.000
    Si1771   Si       0.42574    0.20328    0.47927    1.000
    Si1772   Si       0.33905    0.18788    0.32656    1.000
    Si1773   Si       0.30880    0.18246    0.45242    1.000
    Si1774   Si       0.35927    0.20565    0.49730    1.000
    N1775    N        0.33046    0.21368    0.52905    1.000
    Si1776   Si       0.28853    0.20121    0.52137    1.000
    N1777    N        0.26514    0.23880    0.52744    1.000
    N1778    N        0.44618    0.19450    0.67759    1.000
    Si1779   Si       0.46768    0.22735    0.65793    1.000
    N1780    N        0.37935    0.22166    0.57237    1.000
    N1781    N        0.45409    0.21269    0.55008    1.000
    Si1782   Si       0.41434    0.22470    0.54198    1.000
    N1783    N        0.39776    0.19548    0.51304    1.000
    Si1784   Si       0.47396    0.23389    0.58287    1.000
    N1785    N        0.47163    0.20886    0.61936    1.000
    N1786    N        0.37601    0.23126    0.68359    1.000
    N1787    N        0.32622    0.21625    0.64093    1.000
    N1788    N        0.25913    0.22694    0.72153    1.000
    Si1789   Si       0.25472    0.21618    0.68013    1.000
    Si1790   Si       0.36058    0.19762    0.66007    1.000
    N1791    N        0.42469    0.24311    0.73167    1.000
    Si1792   Si       0.24095    0.19278    0.74521    1.000
    N1793    N        0.28070    0.21380    0.83336    1.000
    N1794    N        0.33568    0.22959    0.79296    1.000
    Si1795   Si       0.34149    0.21906    0.75198    1.000
    Si1796   Si       0.25961    0.23116    0.86772    1.000
    N1797    N        0.47593    0.24383    0.82772    1.000
    N1798    N        0.37811    0.19446    0.75621    1.000
    Si1799   Si       0.37125    0.21856    0.81459    1.000
    Si1800   Si       0.47432    0.20666    0.84986    1.000
    Si1801   Si       0.41721    0.21343    0.76071    1.000
    N1802    N        0.40901    0.23403    0.79837    1.000
    N1803    N        0.37042    0.24012    0.85166    1.000
    N1804    N        0.37248    0.19052    0.90768    1.000
    N1805    N        0.24980    0.19926    0.89575    1.000
    Si1806   Si       0.24997    0.22606    0.93199    1.000
    N1807    N        0.28600    0.23165    0.95429    1.000
    N1808    N        0.36196    0.21930    0.97313    1.000
    Si1809   Si       0.36328    0.22603    0.92977    1.000
    Si1810   Si       0.46260    0.19001    0.96113    1.000
    N1811    N        0.45423    0.23282    0.96741    1.000
    N1812    N        0.43500    0.21206    0.87039    1.000
    Si1813   Si       0.40930    0.24591    0.87975    1.000
    Si1814   Si       0.29763    0.25787    0.05033    1.000
    N1815    N        0.33031    0.25250    0.02308    1.000
    Si1816   Si       0.32186    0.25451    0.10900    1.000
    N1817    N        0.35427    0.27933    0.09468    1.000
    N1818    N        0.26854    0.24682    0.01815    1.000
    N1819    N        0.29142    0.29745    0.06836    1.000
    N1820    N        0.44055    0.28753    0.06511    1.000
    Si1821   Si       0.43140    0.29562    0.02292    1.000
    Si1822   Si       0.38377    0.25411    0.11485    1.000
    N1823    N        0.40568    0.26580    0.00223    1.000
    N1824    N        0.47057    0.29008    0.00132    1.000
    N1825    N        0.48557    0.29928    0.22312    1.000
    Si1826   Si       0.44341    0.24463    0.07162    1.000
    N1827    N        0.28715    0.26966    0.12941    1.000
    N1828    N        0.24675    0.27303    0.18056    1.000
    N1829    N        0.29974    0.27416    0.23223    1.000
    Si1830   Si       0.27352    0.29703    0.20614    1.000
    N1831    N        0.41331    0.26910    0.13989    1.000
    Si1832   Si       0.26842    0.24337    0.15805    1.000
    N1833    N        0.47710    0.26424    0.16732    1.000
    N1834    N        0.36549    0.27242    0.21917    1.000
    N1835    N        0.34442    0.27461    0.35559    1.000
    Si1836   Si       0.28775    0.28093    0.27531    1.000
    Si1837   Si       0.34548    0.25718    0.31610    1.000
    N1838    N        0.24522    0.28011    0.27951    1.000
    N1839    N        0.30481    0.24816    0.29898    1.000
    Si1840   Si       0.30733    0.29454    0.36703    1.000
    Si1841   Si       0.43460    0.27936    0.49467    1.000
    N1842    N        0.36518    0.28539    0.29061    1.000
    N1843    N        0.46728    0.26713    0.29617    1.000
    Si1844   Si       0.44865    0.28347    0.33338    1.000
    N1845    N        0.41497    0.25776    0.34183    1.000
    Si1846   Si       0.39006    0.28492    0.25559    1.000
    N1847    N        0.48415    0.27150    0.35717    1.000
    Si1848   Si       0.48551    0.29679    0.26746    1.000
    N1849    N        0.40583    0.24272    0.25699    1.000
    Si1850   Si       0.24697    0.24983    0.40783    1.000
    N1851    N        0.28632    0.26370    0.38989    1.000
    Si1852   Si       0.32772    0.25701    0.45423    1.000
    N1853    N        0.34874    0.28633    0.43101    1.000
    N1854    N        0.31105    0.27952    0.48775    1.000
    N1855    N        0.48922    0.27990    0.43133    1.000
    Si1856   Si       0.38719    0.27365    0.37099    1.000
    N1857    N        0.39957    0.25148    0.40767    1.000
    Si1858   Si       0.38650    0.26681    0.44488    1.000
    N1859    N        0.40620    0.29811    0.46840    1.000
    Si1860   Si       0.49220    0.25348    0.39529    1.000
    N1861    N        0.35568    0.27878    0.54600    1.000
    Si1862   Si       0.27599    0.27909    0.51449    1.000
    N1863    N        0.31559    0.25971    0.59283    1.000
    N1864    N        0.23985    0.30059    0.50563    1.000
    Si1865   Si       0.33191    0.30226    0.52002    1.000
    N1866    N        0.43871    0.25895    0.65841    1.000
    Si1867   Si       0.30208    0.29970    0.58622    1.000
    N1868    N        0.41702    0.26763    0.53380    1.000
    N1869    N        0.45677    0.27035    0.59388    1.000
    Si1870   Si       0.39500    0.29125    0.56261    1.000
    N1871    N        0.39192    0.29640    0.60838    1.000
    Si1872   Si       0.48574    0.30306    0.59872    1.000
    Si1873   Si       0.23969    0.28285    0.63909    1.000
    N1874    N        0.27173    0.29594    0.72913    1.000
    N1875    N        0.32828    0.25413    0.73086    1.000
    Si1876   Si       0.34850    0.26625    0.69475    1.000
    N1877    N        0.32068    0.28004    0.66619    1.000
    Si1878   Si       0.30395    0.25388    0.63528    1.000
    Si1879   Si       0.28470    0.25706    0.73759    1.000
    N1880    N        0.27492    0.30202    0.62188    1.000
    Si1881   Si       0.41032    0.25380    0.69240    1.000
    Si1882   Si       0.42929    0.28404    0.62520    1.000
    N1883    N        0.38356    0.28970    0.70247    1.000
    Si1884   Si       0.34122    0.24135    0.56380    1.000
    N1885    N        0.26412    0.24767    0.65149    1.000
    N1886    N        0.30521    0.27554    0.84388    1.000
    N1887    N        0.27475    0.26132    0.77958    1.000
    Si1888   Si       0.25962    0.30165    0.77175    1.000
    Si1889   Si       0.30068    0.24496    0.81260    1.000
    Si1890   Si       0.43655    0.26217    0.81900    1.000
    N1891    N        0.44392    0.29022    0.78784    1.000
    N1892    N        0.42388    0.28006    0.85648    1.000
    Si1893   Si       0.45417    0.27276    0.74975    1.000
    N1894    N        0.40132    0.24621    0.92184    1.000
    Si1895   Si       0.34053    0.26644    0.86761    1.000
    Si1896   Si       0.29958    0.26836    0.92983    1.000
    N1897    N        0.26574    0.25809    0.90091    1.000
    N1898    N        0.31354    0.28419    0.96841    1.000
    N1899    N        0.33231    0.24862    0.90758    1.000
    Si1900   Si       0.30215    0.24918    0.99005    1.000
    N1901    N        0.41896    0.30346    0.94751    1.000
    Si1902   Si       0.25278    0.29953    0.89625    1.000
    Si1903   Si       0.42098    0.26023    0.95937    1.000
    N1904    N        0.34223    0.33265    0.02555    1.000
    Si1905   Si       0.31217    0.33643    0.05823    1.000
    Si1906   Si       0.27184    0.30307    0.10686    1.000
    Si1907   Si       0.26185    0.36152    0.99855    1.000
    N1908    N        0.42657    0.33025    0.18192    1.000
    N1909    N        0.46731    0.35422    0.07205    1.000
    N1910    N        0.40986    0.33211    0.01237    1.000
    Si1911   Si       0.45903    0.31544    0.09191    1.000
    N1912    N        0.42485    0.33380    0.11387    1.000
    Si1913   Si       0.37955    0.35831    0.02778    1.000
    N1914    N        0.24550    0.32173    0.22725    1.000
    N1915    N        0.29621    0.33565    0.12508    1.000
    N1916    N        0.30862    0.31924    0.19330    1.000
    Si1917   Si       0.32404    0.33889    0.15840    1.000
    N1918    N        0.36364    0.32640    0.15182    1.000
    Si1919   Si       0.25856    0.35823    0.12828    1.000
    Si1920   Si       0.40576    0.31397    0.14793    1.000
    Si1921   Si       0.44856    0.32129    0.21701    1.000
    Si1922   Si       0.33530    0.30083    0.22179    1.000
    Si1923   Si       0.35011    0.32411    0.28969    1.000
    Si1924   Si       0.27884    0.33898    0.30876    1.000
    N1925    N        0.30757    0.31802    0.28536    1.000
    N1926    N        0.27314    0.30702    0.33941    1.000
    N1927    N        0.36021    0.32842    0.24590    1.000
    N1928    N        0.36469    0.34963    0.32266    1.000
    N1929    N        0.47845    0.33826    0.28170    1.000
    N1930    N        0.43046    0.32097    0.32331    1.000
    Si1931   Si       0.43604    0.33891    0.28344    1.000
    Si1932   Si       0.40098    0.34529    0.34786    1.000
    N1933    N        0.42765    0.30913    0.25260    1.000
    Si1934   Si       0.26258    0.36138    0.45501    1.000
    N1935    N        0.31899    0.33143    0.38736    1.000
    Si1936   Si       0.35640    0.32267    0.40828    1.000
    Si1937   Si       0.47807    0.31922    0.44598    1.000
    N1938    N        0.47059    0.30310    0.48856    1.000
    N1939    N        0.38797    0.31746    0.37936    1.000
    Si1940   Si       0.40791    0.33826    0.45631    1.000
    N1941    N        0.36889    0.35043    0.43878    1.000
    N1942    N        0.44307    0.34265    0.43242    1.000
    N1943    N        0.32797    0.33469    0.59504    1.000
    N1944    N        0.35310    0.33724    0.50342    1.000
    Si1945   Si       0.36603    0.33175    0.61882    1.000
    Si1946   Si       0.42915    0.34756    0.58770    1.000
    N1947    N        0.40910    0.33113    0.55323    1.000
    Si1948   Si       0.38540    0.35591    0.52477    1.000
    N1949    N        0.45089    0.32398    0.61980    1.000
    N1950    N        0.39436    0.36334    0.60928    1.000
    Si1951   Si       0.30692    0.31865    0.65289    1.000
    N1952    N        0.34607    0.33980    0.65584    1.000
    Si1953   Si       0.25055    0.32017    0.70142    1.000
    N1954    N        0.27931    0.34067    0.67704    1.000
    N1955    N        0.41029    0.34637    0.68036    1.000
    N1956    N        0.47582    0.35466    0.68490    1.000
    N1957    N        0.45077    0.30429    0.72141    1.000
    Si1958   Si       0.44366    0.35130    0.65279    1.000
    Si1959   Si       0.40995    0.32137    0.71644    1.000
    N1960    N        0.29547    0.30492    0.54463    1.000
    N1961    N        0.28468    0.33119    0.79272    1.000
    Si1962   Si       0.28912    0.31699    0.83477    1.000
    N1963    N        0.32306    0.34009    0.84969    1.000
    N1964    N        0.25086    0.31622    0.85596    1.000
    Si1965   Si       0.35757    0.35790    0.83011    1.000
    Si1966   Si       0.42219    0.32615    0.79177    1.000
    N1967    N        0.39222    0.33214    0.82533    1.000
    Si1968   Si       0.39870    0.31530    0.86320    1.000
    N1969    N        0.39992    0.33433    0.75512    1.000
    N1970    N        0.45214    0.35749    0.78879    1.000
    Si1971   Si       0.32915    0.33040    0.89101    1.000
    N1972    N        0.29458    0.31119    0.91158    1.000
    Si1973   Si       0.32788    0.32245    0.98474    1.000
    N1974    N        0.29249    0.34855    0.97264    1.000
    Si1975   Si       0.28585    0.35172    0.92963    1.000
    N1976    N        0.36057    0.34371    0.96400    1.000
    N1977    N        0.47923    0.32552    0.92701    1.000
    Si1978   Si       0.43814    0.33589    0.92319    1.000
    Si1979   Si       0.40262    0.33617    0.97057    1.000
    N1980    N        0.42070    0.34628    0.88426    1.000
    N1981    N        0.36245    0.30224    0.88174    1.000
    Si1982   Si       0.28605    0.39321    0.06493    1.000
    N1983    N        0.26861    0.39377    0.10509    1.000
    N1984    N        0.32626    0.37350    0.07611    1.000
    N1985    N        0.27683    0.35802    0.03988    1.000
    Si1986   Si       0.35935    0.39284    0.09429    1.000
    N1987    N        0.44114    0.40721    0.10238    1.000
    Si1988   Si       0.42811    0.36825    0.08953    1.000
    N1989    N        0.39171    0.37342    0.06796    1.000
    N1990    N        0.38081    0.39182    0.00176    1.000
    N1991    N        0.32146    0.38087    0.17294    1.000
    Si1992   Si       0.28241    0.39877    0.18463    1.000
    N1993    N        0.25199    0.36927    0.16952    1.000
    N1994    N        0.27107    0.39874    0.22628    1.000
    N1995    N        0.44060    0.40888    0.17012    1.000
    Si1996   Si       0.37381    0.36897    0.24302    1.000
    Si1997   Si       0.36126    0.40093    0.17430    1.000
    N1998    N        0.46122    0.36289    0.21999    1.000
    N1999    N        0.37620    0.39818    0.13502    1.000
    Si2000   Si       0.42864    0.37359    0.19129    1.000
    N2001    N        0.38663    0.38181    0.20545    1.000
    Si2002   Si       0.41573    0.42108    0.13526    1.000
    Si2003   Si       0.34079    0.38226    0.33923    1.000
    Si2004   Si       0.26369    0.39514    0.32220    1.000
    N2005    N        0.29816    0.37223    0.33296    1.000
    N2006    N        0.25064    0.36749    0.29121    1.000
    Si2007   Si       0.23954    0.39132    0.25465    1.000
    N2008    N        0.34518    0.39889    0.25576    1.000
    N2009    N        0.41264    0.37147    0.26783    1.000
    Si2010   Si       0.42628    0.41194    0.26817    1.000
    N2011    N        0.42328    0.37888    0.36500    1.000
    N2012    N        0.47795    0.39621    0.40524    1.000
    N2013    N        0.35034    0.38704    0.38054    1.000
    Si2014   Si       0.31357    0.37342    0.40207    1.000
    N2015    N        0.34161    0.40283    0.48806    1.000
    N2016    N        0.29192    0.40965    0.39299    1.000
    Si2017   Si       0.24931    0.41103    0.39408    1.000
    N2018    N        0.24619    0.38085    0.49304    1.000
    Si2019   Si       0.34162    0.36230    0.46946    1.000
    N2020    N        0.41176    0.36562    0.49020    1.000
    N2021    N        0.46049    0.41520    0.46959    1.000
    Si2022   Si       0.37854    0.41482    0.39797    1.000
    Si2023   Si       0.43835    0.37779    0.40484    1.000
    N2024    N        0.41170    0.40544    0.42265    1.000
    N2025    N        0.34365    0.42034    0.31930    1.000
    N2026    N        0.30532    0.36322    0.44705    1.000
    N2027    N        0.29464    0.38466    0.54792    1.000
    Si2028   Si       0.32996    0.40564    0.53329    1.000
    N2029    N        0.33817    0.40158    0.60395    1.000
    Si2030   Si       0.30617    0.37428    0.59024    1.000
    Si2031   Si       0.25456    0.39339    0.53275    1.000
    N2032    N        0.27204    0.38140    0.61673    1.000
    N2033    N        0.36870    0.38891    0.54692    1.000
    Si2034   Si       0.37863    0.39755    0.58866    1.000
    N2035    N        0.45881    0.37855    0.58328    1.000
    N2036    N        0.47820    0.36811    0.51874    1.000
    Si2037   Si       0.44851    0.41316    0.60717    1.000
    Si2038   Si       0.44582    0.39023    0.50322    1.000
    Si2039   Si       0.27283    0.37940    0.65981    1.000
    N2040    N        0.30449    0.40653    0.66997    1.000
    Si2041   Si       0.31880    0.40032    0.71268    1.000
    N2042    N        0.35447    0.37342    0.71952    1.000
    Si2043   Si       0.24633    0.38482    0.72752    1.000
    N2044    N        0.28841    0.38634    0.74145    1.000
    Si2045   Si       0.33799    0.41531    0.64306    1.000
    N2046    N        0.24323    0.39654    0.68724    1.000
    Si2047   Si       0.37089    0.36527    0.68042    1.000
    N2048    N        0.43671    0.41592    0.70614    1.000
    Si2049   Si       0.47156    0.39685    0.68612    1.000
    N2050    N        0.44798    0.39633    0.64719    1.000
    N2051    N        0.37744    0.40397    0.66311    1.000
    N2052    N        0.28503    0.39933    0.81085    1.000
    Si2053   Si       0.24716    0.40574    0.83208    1.000
    Si2054   Si       0.30098    0.37159    0.78078    1.000
    N2055    N        0.34269    0.36779    0.78963    1.000
    N2056    N        0.25739    0.41717    0.87241    1.000
    N2057    N        0.36995    0.38831    0.85952    1.000
    Si2058   Si       0.37205    0.36791    0.76017    1.000
    N2059    N        0.39617    0.39864    0.77804    1.000
    Si2060   Si       0.43549    0.39586    0.79585    1.000
    N2061    N        0.43808    0.40926    0.83611    1.000
    Si2062   Si       0.46804    0.41123    0.86937    1.000
    Si2063   Si       0.41173    0.38733    0.86982    1.000
    Si2064   Si       0.34504    0.40326    0.89456    1.000
    N2065    N        0.32050    0.36968    0.90982    1.000
    Si2066   Si       0.35516    0.38651    0.96192    1.000
    N2067    N        0.32681    0.41778    0.96837    1.000
    N2068    N        0.24583    0.36491    0.92103    1.000
    N2069    N        0.42812    0.36646    0.95260    1.000
    N2070    N        0.43834    0.40763    0.90076    1.000
    Si2071   Si       0.41847    0.40680    0.93882    1.000
    N2072    N        0.37677    0.40438    0.92768    1.000
    N2073    N        0.25935    0.40416    0.99103    1.000
    Si2074   Si       0.33909    0.45176    0.05011    1.000
    Si2075   Si       0.26575    0.45823    0.05616    1.000
    N2076    N        0.29943    0.43151    0.04867    1.000
    N2077    N        0.27587    0.46453    0.09701    1.000
    N2078    N        0.36347    0.45957    0.01390    1.000
    N2079    N        0.36156    0.43428    0.08189    1.000
    Si2080   Si       0.36546    0.47388    0.10257    1.000
    N2081    N        0.42694    0.46285    0.02189    1.000
    Si2082   Si       0.47482    0.43350    0.09767    1.000
    N2083    N        0.45386    0.47020    0.08469    1.000
    Si2084   Si       0.39810    0.43176    0.00599    1.000
    Si2085   Si       0.26502    0.43221    0.12355    1.000
    N2086    N        0.28423    0.43709    0.16290    1.000
    Si2087   Si       0.35825    0.43583    0.23547    1.000
    N2088    N        0.36134    0.44201    0.19236    1.000
    Si2089   Si       0.30410    0.47469    0.16768    1.000
    Si2090   Si       0.47390    0.43599    0.17623    1.000
    Si2091   Si       0.47023    0.46399    0.24139    1.000
    N2092    N        0.45860    0.47078    0.19937    1.000
    Si2093   Si       0.37334    0.47513    0.16709    1.000
    N2094    N        0.39877    0.45967    0.13395    1.000
    Si2095   Si       0.24752    0.45472    0.28052    1.000
    N2096    N        0.27890    0.42562    0.29389    1.000
    N2097    N        0.32674    0.45879    0.25715    1.000
    N2098    N        0.32943    0.46799    0.36732    1.000
    Si2099   Si       0.36025    0.45551    0.33962    1.000
    Si2100   Si       0.31980    0.42300    0.28295    1.000
    Si2101   Si       0.48856    0.44172    0.39650    1.000
    Si2102   Si       0.41062    0.46717    0.28704    1.000
    N2103    N        0.42521    0.43007    0.30791    1.000
    N2104    N        0.46471    0.43843    0.35753    1.000
    N2105    N        0.39254    0.43954    0.36513    1.000
    N2106    N        0.39723    0.44213    0.25372    1.000
    N2107    N        0.46224    0.42363    0.25053    1.000
    Si2108   Si       0.31432    0.44411    0.40226    1.000
    N2109    N        0.34907    0.43491    0.42463    1.000
    Si2110   Si       0.35390    0.44127    0.46635    1.000
    N2111    N        0.32970    0.47398    0.48184    1.000
    N2112    N        0.28938    0.47247    0.42359    1.000
    N2113    N        0.39679    0.45356    0.47023    1.000
    N2114    N        0.45127    0.46212    0.41933    1.000
    Si2115   Si       0.42851    0.43716    0.44621    1.000
    Si2116   Si       0.42886    0.41870    0.34932    1.000
    N2117    N        0.31784    0.44500    0.54461    1.000
    Si2118   Si       0.27700    0.45380    0.55695    1.000
    N2119    N        0.25078    0.43769    0.52524    1.000
    N2120    N        0.25059    0.44186    0.59046    1.000
    Si2121   Si       0.34151    0.47584    0.52451    1.000
    N2122    N        0.43438    0.42478    0.52406    1.000
    Si2123   Si       0.41675    0.45171    0.55668    1.000
    Si2124   Si       0.46207    0.45940    0.51441    1.000
    N2125    N        0.47643    0.44715    0.61228    1.000
    N2126    N        0.38353    0.47151    0.53624    1.000
    N2127    N        0.41000    0.42670    0.59131    1.000
    N2128    N        0.45160    0.47631    0.55455    1.000
    Si2129   Si       0.30487    0.47039    0.73957    1.000
    N2130    N        0.32980    0.44233    0.71492    1.000
    N2131    N        0.33772    0.45935    0.64798    1.000
    Si2132   Si       0.29939    0.45516    0.67247    1.000
    N2133    N        0.26424    0.46931    0.64767    1.000
    N2134    N        0.28005    0.47794    0.70481    1.000
    Si2135   Si       0.36375    0.47016    0.71959    1.000
    N2136    N        0.42094    0.46130    0.65008    1.000
    N2137    N        0.46605    0.47288    0.72415    1.000
    Si2138   Si       0.43801    0.44262    0.73939    1.000
    Si2139   Si       0.41691    0.42176    0.66826    1.000
    Si2140   Si       0.45655    0.47919    0.63401    1.000
    Si2141   Si       0.37798    0.47751    0.64837    1.000
    Si2142   Si       0.30005    0.43971    0.80354    1.000
    N2143    N        0.27750    0.45593    0.76742    1.000
    N2144    N        0.33959    0.44193    0.78871    1.000
    N2145    N        0.28373    0.46975    0.83273    1.000
    N2146    N        0.40304    0.46182    0.81282    1.000
    Si2147   Si       0.38198    0.43935    0.78182    1.000
    Si2148   Si       0.44552    0.45515    0.82515    1.000
    N2149    N        0.45562    0.42723    0.77486    1.000
    N2150    N        0.39636    0.45518    0.74312    1.000
    Si2151   Si       0.28119    0.44926    0.89067    1.000
    N2152    N        0.32373    0.43974    0.89303    1.000
    N2153    N        0.29664    0.47078    0.98911    1.000
    Si2154   Si       0.28411    0.43222    0.97118    1.000
    Si2155   Si       0.33670    0.45805    0.97950    1.000
    N2156    N        0.26678    0.43296    0.93331    1.000
    Si2157   Si       0.34657    0.47544    0.90307    1.000
    Si2158   Si       0.23925    0.47431    0.83126    1.000
    N2159    N        0.38272    0.47514    0.87999    1.000
    N2160    N        0.41907    0.43836    0.96702    1.000
    Si2161   Si       0.48339    0.47441    0.91443    1.000
    Si2162   Si       0.43925    0.47684    0.96870    1.000
    N2163    N        0.44318    0.48138    0.85931    1.000
    N2164    N        0.25206    0.49374    0.03650    1.000
    Si2165   Si       0.30447    0.49826    0.10658    1.000
    N2166    N        0.33438    0.48930    0.07612    1.000
    Si2167   Si       0.33162    0.53033    0.05475    1.000
    Si2168   Si       0.27880    0.50650    0.00499    1.000
    N2169    N        0.30733    0.53280    0.01829    1.000
    N2170    N        0.29625    0.53663    0.08649    1.000
    N2171    N        0.37267    0.52501    0.03506    1.000
    N2172    N        0.44858    0.52275    0.04051    1.000
    N2173    N        0.39348    0.50934    0.09727    1.000
    Si2174   Si       0.39510    0.49487    0.01609    1.000
    Si2175   Si       0.42668    0.48732    0.11409    1.000
    Si2176   Si       0.45933    0.48015    0.04447    1.000
    N2177    N        0.30084    0.49835    0.20415    1.000
    N2178    N        0.28299    0.50656    0.14484    1.000
    Si2179   Si       0.24517    0.52514    0.15224    1.000
    N2180    N        0.33820    0.47854    0.13899    1.000
    Si2181   Si       0.44025    0.50783    0.18585    1.000
    N2182    N        0.39496    0.50942    0.18308    1.000
    N2183    N        0.45128    0.50736    0.14288    1.000
    N2184    N        0.33120    0.52420    0.26385    1.000
    N2185    N        0.26308    0.48862    0.26044    1.000
    N2186    N        0.33520    0.52719    0.33388    1.000
    Si2187   Si       0.35641    0.51818    0.29731    1.000
    N2188    N        0.26878    0.50493    0.36432    1.000
    Si2189   Si       0.31326    0.50774    0.36359    1.000
    Si2190   Si       0.24237    0.52761    0.26350    1.000
    Si2191   Si       0.30347    0.49288    0.24729    1.000
    Si2192   Si       0.46510    0.52699    0.28727    1.000
    N2193    N        0.44817    0.48908    0.27379    1.000
    N2194    N        0.47773    0.52202    0.32886    1.000
    N2195    N        0.37853    0.48171    0.30982    1.000
    Si2196   Si       0.25402    0.48501    0.40072    1.000
    N2197    N        0.25251    0.49482    0.48618    1.000
    Si2198   Si       0.29349    0.49411    0.46273    1.000
    N2199    N        0.24639    0.52149    0.41977    1.000
    N2200    N        0.30592    0.53615    0.45865    1.000
    N2201    N        0.48959    0.51034    0.44296    1.000
    N2202    N        0.44341    0.49528    0.49104    1.000
    Si2203   Si       0.46732    0.49950    0.40848    1.000
    Si2204   Si       0.46633    0.52682    0.47400    1.000
    N2205    N        0.44581    0.53246    0.38984    1.000
    N2206    N        0.32821    0.51471    0.53481    1.000
    N2207    N        0.27490    0.49594    0.57447    1.000
    Si2208   Si       0.29752    0.53011    0.56088    1.000
    Si2209   Si       0.25201    0.48268    0.60837    1.000
    Si2210   Si       0.47357    0.50859    0.57288    1.000
    N2211    N        0.45603    0.51578    0.61070    1.000
    N2212    N        0.37471    0.50592    0.61736    1.000
    N2213    N        0.38474    0.52819    0.49710    1.000
    Si2214   Si       0.24292    0.48463    0.68128    1.000
    N2215    N        0.34001    0.49591    0.74474    1.000
    N2216    N        0.48568    0.49183    0.66508    1.000
    N2217    N        0.42606    0.53148    0.73121    1.000
    Si2218   Si       0.39920    0.53290    0.69641    1.000
    N2219    N        0.38210    0.49429    0.68891    1.000
    Si2220   Si       0.46493    0.51246    0.73782    1.000
    Si2221   Si       0.39946    0.48773    0.49725    1.000
    Si2222   Si       0.30377    0.51100    0.82884    1.000
    Si2223   Si       0.34302    0.51830    0.78126    1.000
    N2224    N        0.34568    0.50466    0.82180    1.000
    N2225    N        0.29926    0.52497    0.78590    1.000
    Si2226   Si       0.38305    0.49197    0.83877    1.000
    N2227    N        0.39927    0.53001    0.85485    1.000
    N2228    N        0.48110    0.51298    0.77825    1.000
    N2229    N        0.40593    0.50981    0.97780    1.000
    Si2230   Si       0.29410    0.52945    0.89079    1.000
    N2231    N        0.33549    0.51769    0.89214    1.000
    N2232    N        0.25611    0.51857    0.96980    1.000
    N2233    N        0.27271    0.49094    0.89614    1.000
    Si2234   Si       0.43663    0.53284    0.94204    1.000
    N2235    N        0.44263    0.48821    0.92616    1.000
    N2236    N        0.46954    0.51311    0.97740    1.000
    N2237    N        0.39844    0.53016    0.91984    1.000
    Si2238   Si       0.37089    0.52125    0.95332    1.000
    Si2239   Si       0.41833    0.49800    0.89053    1.000
    N2240    N        0.35198    0.47993    0.94622    1.000
    Si2241   Si       0.31474    0.58040    0.09648    1.000
    N2242    N        0.35121    0.56667    0.07363    1.000
    Si2243   Si       0.25430    0.55109    0.08708    1.000
    N2244    N        0.26791    0.58957    0.10170    1.000
    N2245    N        0.47965    0.57258    0.02748    1.000
    N2246    N        0.42116    0.57437    0.07211    1.000
    Si2247   Si       0.46064    0.55743    0.06396    1.000
    Si2248   Si       0.39037    0.54379    0.07091    1.000
    Si2249   Si       0.45684    0.54611    0.00213    1.000
    N2250    N        0.48475    0.55102    0.09851    1.000
    N2251    N        0.26903    0.55126    0.23924    1.000
    N2252    N        0.32116    0.58430    0.13892    1.000
    N2253    N        0.32622    0.55957    0.20173    1.000
    N2254    N        0.26449    0.56159    0.17023    1.000
    Si2255   Si       0.34498    0.58833    0.17306    1.000
    Si2256   Si       0.28806    0.54032    0.20017    1.000
    Si2257   Si       0.34234    0.56195    0.24441    1.000
    Si2258   Si       0.27818    0.59341    0.14362    1.000
    N2259    N        0.44269    0.54783    0.20290    1.000
    Si2260   Si       0.45781    0.58798    0.21052    1.000
    N2261    N        0.38852    0.58678    0.16950    1.000
    N2262    N        0.38405    0.56218    0.23558    1.000
    Si2263   Si       0.39907    0.55230    0.19559    1.000
    Si2264   Si       0.35448    0.56556    0.33830    1.000
    Si2265   Si       0.27675    0.59293    0.25503    1.000
    N2266    N        0.24360    0.56744    0.36539    1.000
    N2267    N        0.37651    0.55714    0.30067    1.000
    Si2268   Si       0.40345    0.57771    0.27157    1.000
    N2269    N        0.44041    0.56209    0.28849    1.000
    N2270    N        0.45654    0.59023    0.35569    1.000
    Si2271   Si       0.47418    0.55130    0.36246    1.000
    Si2272   Si       0.33495    0.55194    0.42777    1.000
    Si2273   Si       0.27476    0.56879    0.46077    1.000
    N2274    N        0.27068    0.58295    0.41994    1.000
    Si2275   Si       0.26964    0.54659    0.39314    1.000
    N2276    N        0.47576    0.59769    0.41998    1.000
    Si2277   Si       0.40919    0.56021    0.39559    1.000
    N2278    N        0.44028    0.55661    0.46054    1.000
    Si2279   Si       0.39672    0.55445    0.46462    1.000
    N2280    N        0.37804    0.57574    0.37118    1.000
    N2281    N        0.37937    0.54418    0.42664    1.000
    Si2282   Si       0.43900    0.60125    0.44980    1.000
    N2283    N        0.32024    0.59649    0.26101    1.000
    N2284    N        0.32835    0.59732    0.32704    1.000
    Si2285   Si       0.45901    0.59498    0.31233    1.000
    N2286    N        0.31222    0.54123    0.39299    1.000
    N2287    N        0.27638    0.56206    0.53904    1.000
    N2288    N        0.34552    0.58159    0.51912    1.000
    N2289    N        0.32375    0.55030    0.58958    1.000
    Si2290   Si       0.30311    0.59128    0.52008    1.000
    Si2291   Si       0.36119    0.54294    0.52848    1.000
    Si2292   Si       0.36499    0.54506    0.60131    1.000
    N2293    N        0.38832    0.54647    0.56317    1.000
    Si2294   Si       0.42788    0.56561    0.55948    1.000
    N2295    N        0.43141    0.58231    0.59886    1.000
    N2296    N        0.46694    0.54671    0.55118    1.000
    Si2297   Si       0.31572    0.57712    0.62264    1.000
    N2298    N        0.30463    0.57621    0.73488    1.000
    N2299    N        0.28521    0.55838    0.64440    1.000
    N2300    N        0.35714    0.57451    0.63342    1.000
    Si2301   Si       0.24508    0.54811    0.64782    1.000
    Si2302   Si       0.34881    0.58091    0.74071    1.000
    Si2303   Si       0.36231    0.58949    0.67386    1.000
    N2304    N        0.24812    0.59338    0.69946    1.000
    Si2305   Si       0.44595    0.55364    0.62963    1.000
    N2306    N        0.48001    0.56483    0.65390    1.000
    N2307    N        0.41823    0.54632    0.66096    1.000
    N2308    N        0.36852    0.56290    0.70515    1.000
    Si2309   Si       0.28072    0.55774    0.76557    1.000
    Si2310   Si       0.27684    0.58538    0.83733    1.000
    N2311    N        0.28955    0.54634    0.85053    1.000
    N2312    N        0.28804    0.59142    0.79502    1.000
    N2313    N        0.36484    0.55262    0.77216    1.000
    N2314    N        0.46844    0.55029    0.84309    1.000
    Si2315   Si       0.47411    0.55056    0.80015    1.000
    N2316    N        0.43085    0.56121    0.79274    1.000
    Si2317   Si       0.42489    0.56074    0.83770    1.000
    Si2318   Si       0.40543    0.55702    0.75907    1.000
    N2319    N        0.24218    0.54508    0.75241    1.000
    Si2320   Si       0.48812    0.54226    0.87991    1.000
    Si2321   Si       0.32631    0.57971    0.92748    1.000
    Si2322   Si       0.25931    0.55762    0.95118    1.000
    N2323    N        0.28929    0.56098    0.91899    1.000
    N2324    N        0.28244    0.58403    0.97810    1.000
    N2325    N        0.34047    0.55193    0.95931    1.000
    Si2326   Si       0.32004    0.56648    0.99351    1.000
    N2327    N        0.35967    0.58330    0.89582    1.000
    N2328    N        0.46227    0.55434    0.91114    1.000
    Si2329   Si       0.46334    0.59246    0.93372    1.000
    Si2330   Si       0.37296    0.54379    0.88751    1.000
    N2331    N        0.44134    0.57053    0.96632    1.000
    Si2332   Si       0.27136    0.62150    0.07138    1.000
    N2333    N        0.31385    0.61532    0.06998    1.000
    N2334    N        0.25362    0.61359    0.03224    1.000
    Si2335   Si       0.35059    0.60379    0.04845    1.000
    N2336    N        0.34237    0.60216    0.00628    1.000
    N2337    N        0.38042    0.63142    0.06017    1.000
    Si2338   Si       0.41872    0.61882    0.07487    1.000
    N2339    N        0.44684    0.64116    0.05051    1.000
    N2340    N        0.42064    0.62523    0.11719    1.000
    N2341    N        0.33801    0.62771    0.19065    1.000
    N2342    N        0.27165    0.63504    0.15370    1.000
    N2343    N        0.25406    0.62543    0.23711    1.000
    N2344    N        0.45742    0.61464    0.17724    1.000
    N2345    N        0.43184    0.60632    0.23901    1.000
    Si2346   Si       0.41660    0.61966    0.16022    1.000
    N2347    N        0.27058    0.62912    0.35606    1.000
    Si2348   Si       0.29164    0.61915    0.31997    1.000
    Si2349   Si       0.34332    0.61889    0.28876    1.000
    N2350    N        0.26304    0.59625    0.29637    1.000
    N2351    N        0.41626    0.60261    0.41199    1.000
    N2352    N        0.39596    0.59706    0.47291    1.000
    N2353    N        0.38412    0.61857    0.27693    1.000
    N2354    N        0.44375    0.63342    0.29949    1.000
    Si2355   Si       0.41848    0.63958    0.26382    1.000
    N2356    N        0.46556    0.62704    0.47421    1.000
    Si2357   Si       0.25320    0.60568    0.38696    1.000
    Si2358   Si       0.31268    0.62354    0.44799    1.000
    N2359    N        0.29208    0.60300    0.47958    1.000
    N2360    N        0.34043    0.59508    0.43037    1.000
    N2361    N        0.36069    0.64627    0.38951    1.000
    N2362    N        0.29179    0.65104    0.42126    1.000
    Si2363   Si       0.37145    0.60677    0.40331    1.000
    Si2364   Si       0.44952    0.62133    0.38939    1.000
    N2365    N        0.31660    0.65158    0.30230    1.000
    N2366    N        0.42737    0.65172    0.36435    1.000
    N2367    N        0.29825    0.62814    0.54086    1.000
    Si2368   Si       0.27858    0.63238    0.58018    1.000
    N2369    N        0.30211    0.61905    0.61303    1.000
    N2370    N        0.24286    0.60381    0.58227    1.000
    Si2371   Si       0.38267    0.60642    0.51264    1.000
    Si2372   Si       0.45537    0.62467    0.51774    1.000
    Si2373   Si       0.42964    0.62644    0.60806    1.000
    N2374    N        0.36972    0.64549    0.52366    1.000
    N2375    N        0.42156    0.59980    0.53165    1.000
    N2376    N        0.39022    0.63998    0.61577    1.000
    N2377    N        0.28169    0.64168    0.73626    1.000
    Si2378   Si       0.28899    0.60872    0.70603    1.000
    Si2379   Si       0.30855    0.63782    0.65031    1.000
    N2380    N        0.32269    0.60824    0.68030    1.000
    N2381    N        0.27269    0.64557    0.67392    1.000
    N2382    N        0.39147    0.62145    0.67884    1.000
    Si2383   Si       0.41798    0.62345    0.71541    1.000
    Si2384   Si       0.47833    0.60487    0.67216    1.000
    N2385    N        0.45825    0.62823    0.64045    1.000
    N2386    N        0.45934    0.61691    0.70757    1.000
    Si2387   Si       0.38190    0.65717    0.65461    1.000
    Si2388   Si       0.30478    0.62637    0.77026    1.000
    N2389    N        0.29084    0.61816    0.86106    1.000
    N2390    N        0.35408    0.64553    0.86204    1.000
    N2391    N        0.34405    0.62354    0.75148    1.000
    Si2392   Si       0.31512    0.64972    0.84280    1.000
    N2393    N        0.45780    0.62897    0.79417    1.000
    Si2394   Si       0.38974    0.63703    0.83978    1.000
    N2395    N        0.38993    0.64185    0.79593    1.000
    Si2396   Si       0.41835    0.60783    0.79122    1.000
    Si2397   Si       0.36214    0.62815    0.90252    1.000
    N2398    N        0.33412    0.62261    0.93671    1.000
    Si2399   Si       0.26786    0.65204    0.88348    1.000
    Si2400   Si       0.33621    0.63442    0.97923    1.000
    N2401    N        0.29507    0.65074    0.98570    1.000
    Si2402   Si       0.26633    0.62057    0.99235    1.000
    N2403    N        0.45975    0.62924    0.90967    1.000
    N2404    N        0.39432    0.65322    0.91822    1.000
    N2405    N        0.40603    0.60023    0.74994    1.000
    N2406    N        0.40611    0.59770    0.83658    1.000
    N2407    N        0.33251    0.68965    0.04104    1.000
    Si2408   Si       0.29323    0.69419    0.06547    1.000
    N2409    N        0.26387    0.66318    0.07360    1.000
    Si2410   Si       0.34169    0.70263    0.99922    1.000
    N2411    N        0.30916    0.70805    0.10226    1.000
    Si2412   Si       0.34566    0.70031    0.11899    1.000
    Si2413   Si       0.37249    0.67461    0.05723    1.000
    Si2414   Si       0.43813    0.67263    0.02219    1.000
    N2415    N        0.38109    0.68881    0.09684    1.000
    N2416    N        0.40471    0.69670    0.03533    1.000
    N2417    N        0.47482    0.69458    0.01658    1.000
    N2418    N        0.33560    0.67627    0.15260    1.000
    N2419    N        0.29185    0.68300    0.20046    1.000
    N2420    N        0.35072    0.69357    0.21586    1.000
    Si2421   Si       0.25510    0.66453    0.21657    1.000
    Si2422   Si       0.36331    0.66567    0.18468    1.000
    N2423    N        0.46612    0.69815    0.19912    1.000
    Si2424   Si       0.42760    0.69457    0.18137    1.000
    Si2425   Si       0.38696    0.70740    0.23655    1.000
    N2426    N        0.40406    0.65877    0.17588    1.000
    Si2427   Si       0.47651    0.70646    0.12141    1.000
    N2428    N        0.43616    0.70613    0.13931    1.000
    N2429    N        0.46773    0.71978    0.08018    1.000
    Si2430   Si       0.30460    0.65336    0.17201    1.000
    Si2431   Si       0.32892    0.68722    0.32421    1.000
    Si2432   Si       0.26396    0.67091    0.35921    1.000
    N2433    N        0.24947    0.69063    0.32405    1.000
    N2434    N        0.24695    0.68898    0.25099    1.000
    N2435    N        0.30638    0.68436    0.36131    1.000
    N2436    N        0.45353    0.70906    0.44737    1.000
    N2437    N        0.37135    0.69071    0.33570    1.000
    N2438    N        0.43211    0.69608    0.30704    1.000
    Si2439   Si       0.45113    0.66470    0.32878    1.000
    Si2440   Si       0.44797    0.70299    0.26608    1.000
    N2441    N        0.41712    0.67804    0.24661    1.000
    N2442    N        0.48767    0.68437    0.26316    1.000
    Si2443   Si       0.44702    0.69389    0.40631    1.000
    Si2444   Si       0.25620    0.67789    0.43048    1.000
    Si2445   Si       0.35365    0.69207    0.46015    1.000
    Si2446   Si       0.32485    0.67078    0.39722    1.000
    N2447    N        0.34063    0.70590    0.42020    1.000
    N2448    N        0.24184    0.69181    0.39078    1.000
    N2449    N        0.33172    0.65778    0.47392    1.000
    Si2450   Si       0.24480    0.71351    0.48541    1.000
    Si2451   Si       0.39029    0.67093    0.37060    1.000
    N2452    N        0.47433    0.65846    0.40602    1.000
    N2453    N        0.40518    0.69951    0.39909    1.000
    N2454    N        0.39294    0.69524    0.47971    1.000
    N2455    N        0.27315    0.71330    0.44805    1.000
    N2456    N        0.31973    0.69438    0.53468    1.000
    N2457    N        0.27146    0.67501    0.58625    1.000
    Si2458   Si       0.29514    0.70968    0.60244    1.000
    Si2459   Si       0.24194    0.70437    0.57099    1.000
    Si2460   Si       0.32562    0.65540    0.51775    1.000
    Si2461   Si       0.46159    0.68536    0.55423    1.000
    Si2462   Si       0.39799    0.67703    0.51834    1.000
    N2463    N        0.43910    0.66440    0.52425    1.000
    N2464    N        0.38771    0.70553    0.54771    1.000
    N2465    N        0.45268    0.66005    0.58887    1.000
    N2466    N        0.34059    0.66857    0.65169    1.000
    N2467    N        0.31318    0.70054    0.70611    1.000
    Si2468   Si       0.27728    0.67371    0.70631    1.000
    N2469    N        0.24542    0.70115    0.70033    1.000
    Si2470   Si       0.32824    0.70755    0.66586    1.000
    N2471    N        0.28973    0.71334    0.64600    1.000
    N2472    N        0.40684    0.66338    0.73047    1.000
    N2473    N        0.46102    0.70769    0.71673    1.000
    N2474    N        0.40922    0.68742    0.66826    1.000
    Si2475   Si       0.42078    0.69659    0.70782    1.000
    Si2476   Si       0.47830    0.66191    0.62261    1.000
    N2477    N        0.47282    0.69513    0.64871    1.000
    Si2478   Si       0.31178    0.69643    0.78461    1.000
    N2479    N        0.29106    0.68173    0.86117    1.000
    N2480    N        0.35165    0.69177    0.76399    1.000
    N2481    N        0.30705    0.65740    0.80065    1.000
    Si2482   Si       0.43129    0.65829    0.89394    1.000
    N2483    N        0.48586    0.68029    0.84267    1.000
    N2484    N        0.44235    0.69805    0.79116    1.000
    Si2485   Si       0.45106    0.66664    0.81893    1.000
    N2486    N        0.42320    0.66224    0.85256    1.000
    Si2487   Si       0.39637    0.67490    0.95647    1.000
    Si2488   Si       0.47058    0.71555    0.86547    1.000
    Si2489   Si       0.27690    0.68471    0.96356    1.000
    N2490    N        0.27044    0.66941    0.92383    1.000
    N2491    N        0.30833    0.71289    0.97341    1.000
    N2492    N        0.23908    0.70213    0.97480    1.000
    N2493    N        0.36165    0.66980    0.98235    1.000
    Si2494   Si       0.47209    0.69238    0.97251    1.000
    N2495    N        0.43496    0.66792    0.97854    1.000
    N2496    N        0.44837    0.69916    0.89825    1.000
    Si2497   Si       0.37443    0.65450    0.75807    1.000
    N2498    N        0.26831    0.72594    0.04638    1.000
    Si2499   Si       0.35483    0.76787    0.10527    1.000
    N2500    N        0.36044    0.75330    0.06395    1.000
    Si2501   Si       0.34025    0.77435    0.03150    1.000
    N2502    N        0.36646    0.74098    0.00024    1.000
    N2503    N        0.42168    0.75870    0.09810    1.000
    Si2504   Si       0.38971    0.73734    0.03654    1.000
    N2505    N        0.42494    0.76136    0.03223    1.000
    Si2506   Si       0.45182    0.75858    0.06690    1.000
    Si2507   Si       0.40722    0.72000    0.11129    1.000
    Si2508   Si       0.37557    0.74898    0.17145    1.000
    N2509    N        0.27310    0.75040    0.17704    1.000
    N2510    N        0.33517    0.75304    0.18701    1.000
    Si2511   Si       0.31432    0.71871    0.20782    1.000
    Si2512   Si       0.43457    0.76330    0.21489    1.000
    N2513    N        0.46815    0.76864    0.18668    1.000
    N2514    N        0.40321    0.72793    0.20042    1.000
    N2515    N        0.36923    0.73591    0.13212    1.000
    N2516    N        0.30204    0.73588    0.24554    1.000
    Si2517   Si       0.33038    0.74519    0.27664    1.000
    Si2518   Si       0.27248    0.72828    0.32020    1.000
    N2519    N        0.25233    0.74695    0.28769    1.000
    N2520    N        0.26225    0.75307    0.35571    1.000
    N2521    N        0.31325    0.72371    0.30939    1.000
    Si2522   Si       0.25927    0.73168    0.24689    1.000
    N2523    N        0.30983    0.77299    0.42053    1.000
    N2524    N        0.36932    0.72471    0.27335    1.000
    N2525    N        0.40825    0.75985    0.31742    1.000
    N2526    N        0.44097    0.74470    0.25435    1.000
    Si2527   Si       0.46485    0.75655    0.35922    1.000
    N2528    N        0.47675    0.76351    0.31751    1.000
    Si2529   Si       0.39330    0.71804    0.30962    1.000
    Si2530   Si       0.44336    0.77082    0.28997    1.000
    Si2531   Si       0.31150    0.73454    0.43902    1.000
    N2532    N        0.33386    0.72725    0.47621    1.000
    Si2533   Si       0.41798    0.72599    0.46445    1.000
    N2534    N        0.46718    0.71841    0.37709    1.000
    N2535    N        0.39319    0.75008    0.43800    1.000
    Si2536   Si       0.37446    0.72908    0.40339    1.000
    N2537    N        0.37117    0.76024    0.37501    1.000
    N2538    N        0.33261    0.75544    0.53771    1.000
    Si2539   Si       0.30886    0.73075    0.51092    1.000
    N2540    N        0.26344    0.74000    0.58664    1.000
    N2541    N        0.33714    0.72608    0.59901    1.000
    N2542    N        0.26995    0.74389    0.50276    1.000
    Si2543   Si       0.34757    0.71873    0.55744    1.000
    Si2544   Si       0.24853    0.77293    0.61227    1.000
    Si2545   Si       0.41357    0.73347    0.56887    1.000
    N2546    N        0.45621    0.72581    0.56738    1.000
    N2547    N        0.40572    0.72412    0.60983    1.000
    Si2548   Si       0.47495    0.76510    0.51055    1.000
    N2549    N        0.43297    0.75397    0.49931    1.000
    Si2550   Si       0.30496    0.73824    0.72748    1.000
    Si2551   Si       0.26015    0.73074    0.67216    1.000
    N2552    N        0.28851    0.75943    0.69234    1.000
    N2553    N        0.36032    0.73849    0.66222    1.000
    N2554    N        0.43247    0.75329    0.66241    1.000
    N2555    N        0.40049    0.73281    0.72271    1.000
    Si2556   Si       0.36806    0.74714    0.62121    1.000
    Si2557   Si       0.39407    0.75471    0.68665    1.000
    Si2558   Si       0.43345    0.71417    0.64095    1.000
    N2559    N        0.25737    0.73195    0.82577    1.000
    Si2560   Si       0.26047    0.74611    0.78488    1.000
    Si2561   Si       0.35528    0.75325    0.82404    1.000
    Si2562   Si       0.29279    0.72272    0.84883    1.000
    N2563    N        0.32386    0.72390    0.81857    1.000
    N2564    N        0.33623    0.75747    0.75086    1.000
    N2565    N        0.36560    0.75733    0.86527    1.000
    Si2566   Si       0.37088    0.73130    0.75818    1.000
    N2567    N        0.38686    0.74174    0.79668    1.000
    N2568    N        0.44112    0.74507    0.84470    1.000
    N2569    N        0.45464    0.75817    0.77528    1.000
    Si2570   Si       0.42823    0.73925    0.80514    1.000
    Si2571   Si       0.40828    0.76593    0.86639    1.000
    N2572    N        0.46972    0.73031    0.95376    1.000
    Si2573   Si       0.30421    0.75321    0.96123    1.000
    N2574    N        0.29782    0.75218    0.88001    1.000
    N2575    N        0.26507    0.75384    0.94230    1.000
    N2576    N        0.33923    0.76347    0.93625    1.000
    Si2577   Si       0.26041    0.76457    0.90108    1.000
    Si2578   Si       0.33475    0.77179    0.89391    1.000
    N2579    N        0.42303    0.76605    0.90675    1.000
    Si2580   Si       0.37650    0.75298    0.95730    1.000
    Si2581   Si       0.43518    0.72970    0.92507    1.000
    N2582    N        0.28411    0.71928    0.76117    1.000
    N2583    N        0.39879    0.71849    0.94626    1.000
    Si2584   Si       0.46430    0.71834    0.75833    1.000
    N2585    N        0.30425    0.79423    0.05492    1.000
    Si2586   Si       0.29195    0.80348    0.09686    1.000
    Si2587   Si       0.29178    0.81271    0.01597    1.000
    N2588    N        0.25145    0.79166    0.10535    1.000
    N2589    N        0.31212    0.77950    0.99669    1.000
    N2590    N        0.48311    0.78943    0.07596    1.000
    N2591    N        0.37017    0.80577    0.02673    1.000
    N2592    N        0.37677    0.80641    0.10922    1.000
    Si2593   Si       0.40803    0.79361    0.00899    1.000
    N2594    N        0.43752    0.82571    0.01079    1.000
    N2595    N        0.31755    0.78070    0.12295    1.000
    N2596    N        0.29414    0.81850    0.17255    1.000
    Si2597   Si       0.30619    0.77724    0.16381    1.000
    Si2598   Si       0.25052    0.82944    0.17452    1.000
    Si2599   Si       0.47767    0.80390    0.16461    1.000
    Si2600   Si       0.41415    0.79209    0.12648    1.000
    N2601    N        0.45121    0.81418    0.13130    1.000
    N2602    N        0.41813    0.80217    0.22231    1.000
    Si2603   Si       0.39207    0.82014    0.19084    1.000
    N2604    N        0.39616    0.78582    0.16528    1.000
    N2605    N        0.33315    0.78841    0.28656    1.000
    Si2606   Si       0.33707    0.80879    0.32391    1.000
    Si2607   Si       0.26851    0.79672    0.35679    1.000
    Si2608   Si       0.29918    0.81650    0.27832    1.000
    N2609    N        0.26215    0.80860    0.25839    1.000
    N2610    N        0.31458    0.79678    0.35878    1.000
    N2611    N        0.24509    0.80968    0.32151    1.000
    N2612    N        0.44546    0.81373    0.28632    1.000
    Si2613   Si       0.39739    0.78480    0.35190    1.000
    N2614    N        0.37604    0.82058    0.33330    1.000
    N2615    N        0.48635    0.82625    0.34087    1.000
    N2616    N        0.25342    0.81748    0.39203    1.000
    Si2617   Si       0.34046    0.78868    0.39394    1.000
    Si2618   Si       0.27816    0.80591    0.42440    1.000
    N2619    N        0.25041    0.79154    0.45594    1.000
    N2620    N        0.37057    0.81409    0.41555    1.000
    N2621    N        0.43739    0.78877    0.36940    1.000
    N2622    N        0.37134    0.79186    0.49198    1.000
    N2623    N        0.48411    0.79396    0.47991    1.000
    Si2624   Si       0.46758    0.82104    0.38065    1.000
    Si2625   Si       0.38687    0.79030    0.44999    1.000
    N2626    N        0.42117    0.81739    0.44924    1.000
    Si2627   Si       0.45175    0.82315    0.48011    1.000
    Si2628   Si       0.26289    0.78551    0.49669    1.000
    Si2629   Si       0.33865    0.79498    0.52173    1.000
    N2630    N        0.35501    0.82324    0.55206    1.000
    Si2631   Si       0.27430    0.83130    0.60383    1.000
    N2632    N        0.30263    0.80412    0.49950    1.000
    N2633    N        0.23950    0.80973    0.52252    1.000
    N2634    N        0.39832    0.77343    0.55953    1.000
    Si2635   Si       0.38228    0.80615    0.58239    1.000
    Si2636   Si       0.40764    0.78195    0.51715    1.000
    N2637    N        0.43062    0.81923    0.51717    1.000
    N2638    N        0.37182    0.79011    0.62105    1.000
    N2639    N        0.27308    0.82334    0.69891    1.000
    N2640    N        0.33018    0.82121    0.73960    1.000
    N2641    N        0.28149    0.79519    0.62846    1.000
    Si2642   Si       0.29389    0.79703    0.67027    1.000
    N2643    N        0.32931    0.82274    0.66633    1.000
    N2644    N        0.45792    0.82154    0.63615    1.000
    N2645    N        0.48333    0.79476    0.68624    1.000
    Si2646   Si       0.46441    0.77939    0.64863    1.000
    N2647    N        0.38082    0.79473    0.69624    1.000
    Si2648   Si       0.37036    0.81126    0.65784    1.000
    Si2649   Si       0.37239    0.81747    0.73194    1.000
    N2650    N        0.34237    0.79515    0.81346    1.000
    Si2651   Si       0.25691    0.81209    0.80780    1.000
    Si2652   Si       0.32314    0.79247    0.77351    1.000
    N2653    N        0.27966    0.78529    0.78296    1.000
    Si2654   Si       0.32740    0.82266    0.84354    1.000
    Si2655   Si       0.47077    0.82312    0.98378    1.000
    Si2656   Si       0.48509    0.78962    0.77347    1.000
    N2657    N        0.38765    0.80753    0.77150    1.000
    N2658    N        0.40890    0.80188    0.84123    1.000
    Si2659   Si       0.38721    0.82312    0.81099    1.000
    N2660    N        0.48239    0.83112    0.76050    1.000
    N2661    N        0.33201    0.81655    0.88861    1.000
    N2662    N        0.26045    0.80982    0.90461    1.000
    N2663    N        0.25219    0.81997    0.99800    1.000
    N2664    N        0.45806    0.81691    0.94091    1.000
    N2665    N        0.40180    0.82941    0.90219    1.000
    Si2666   Si       0.48937    0.81389    0.90890    1.000
    N2667    N        0.40003    0.78857    0.96669    1.000
    N2668    N        0.46784    0.80935    0.87196    1.000
    Si2669   Si       0.41901    0.80355    0.93012    1.000
    Si2670   Si       0.29625    0.83407    0.91034    1.000
    Si2671   Si       0.47500    0.77490    0.84718    1.000
    N2672    N        0.31348    0.85066    0.01817    1.000
    N2673    N        0.28989    0.84860    0.09953    1.000
    Si2674   Si       0.30794    0.86656    0.06293    1.000
    N2675    N        0.34947    0.86055    0.06907    1.000
    Si2676   Si       0.26076    0.88196    0.10124    1.000
    Si2677   Si       0.35888    0.84699    0.03023    1.000
    N2678    N        0.27135    0.89126    0.05742    1.000
    Si2679   Si       0.37558    0.84959    0.10039    1.000
    Si2680   Si       0.42574    0.85722    0.03827    1.000
    N2681    N        0.39072    0.87218    0.01640    1.000
    N2682    N        0.41754    0.84593    0.07864    1.000
    N2683    N        0.48126    0.86289    0.10466    1.000
    N2684    N        0.46230    0.88051    0.03939    1.000
    Si2685   Si       0.43902    0.85530    0.11712    1.000
    Si2686   Si       0.32565    0.84983    0.17096    1.000
    N2687    N        0.35500    0.86074    0.13990    1.000
    N2688    N        0.24570    0.86716    0.15026    1.000
    Si2689   Si       0.35166    0.85504    0.24031    1.000
    N2690    N        0.35488    0.83470    0.20112    1.000
    N2691    N        0.30871    0.88762    0.18224    1.000
    Si2692   Si       0.26493    0.84983    0.24378    1.000
    N2693    N        0.41179    0.85632    0.17843    1.000
    N2694    N        0.41190    0.88962    0.12414    1.000
    Si2695   Si       0.38728    0.88485    0.15801    1.000
    N2696    N        0.48441    0.83881    0.18822    1.000
    Si2697   Si       0.45083    0.86639    0.19345    1.000
    N2698    N        0.44642    0.86784    0.23833    1.000
    Si2699   Si       0.29412    0.87417    0.33636    1.000
    N2700    N        0.25090    0.86960    0.34707    1.000
    N2701    N        0.30801    0.83981    0.31374    1.000
    N2702    N        0.25392    0.87438    0.27816    1.000
    N2703    N        0.32161    0.88222    0.36884    1.000
    N2704    N        0.30874    0.84678    0.24777    1.000
    Si2705   Si       0.42555    0.83186    0.25265    1.000
    Si2706   Si       0.46755    0.84637    0.30662    1.000
    Si2707   Si       0.38990    0.85446    0.30813    1.000
    N2708    N        0.43046    0.86545    0.32275    1.000
    N2709    N        0.38522    0.84454    0.26694    1.000
    Si2710   Si       0.43345    0.88323    0.36237    1.000
    Si2711   Si       0.40347    0.84510    0.42014    1.000
    N2712    N        0.26132    0.88447    0.41598    1.000
    N2713    N        0.30508    0.83999    0.43265    1.000
    Si2714   Si       0.30648    0.84020    0.47515    1.000
    Si2715   Si       0.30309    0.87806    0.41028    1.000
    N2716    N        0.27260    0.86455    0.48775    1.000
    N2717    N        0.34010    0.86065    0.49308    1.000
    N2718    N        0.46507    0.86479    0.47003    1.000
    N2719    N        0.38403    0.88000    0.43514    1.000
    N2720    N        0.43769    0.85416    0.39673    1.000
    Si2721   Si       0.47232    0.86195    0.42528    1.000
    Si2722   Si       0.25921    0.84893    0.52553    1.000
    Si2723   Si       0.35527    0.86250    0.53259    1.000
    N2724    N        0.28078    0.84722    0.56285    1.000
    Si2725   Si       0.30402    0.88267    0.57735    1.000
    N2726    N        0.30192    0.86253    0.61716    1.000
    Si2727   Si       0.42310    0.85254    0.54343    1.000
    N2728    N        0.39498    0.87790    0.52553    1.000
    N2729    N        0.45624    0.87889    0.53897    1.000
    N2730    N        0.41434    0.83688    0.58233    1.000
    N2731    N        0.31247    0.87834    0.69287    1.000
    Si2732   Si       0.32455    0.86479    0.65350    1.000
    Si2733   Si       0.30161    0.84648    0.72027    1.000
    N2734    N        0.24332    0.88374    0.68247    1.000
    Si2735   Si       0.42490    0.84675    0.62362    1.000
    Si2736   Si       0.41733    0.86442    0.68825    1.000
    N2737    N        0.39729    0.84405    0.65521    1.000
    N2738    N        0.45989    0.85892    0.69623    1.000
    N2739    N        0.39665    0.85493    0.72590    1.000
    N2740    N        0.43277    0.88974    0.62101    1.000
    Si2741   Si       0.26841    0.86747    0.84950    1.000
    Si2742   Si       0.25462    0.87457    0.77718    1.000
    N2743    N        0.29350    0.87318    0.75695    1.000
    N2744    N        0.35850    0.88326    0.78026    1.000
    N2745    N        0.36186    0.85117    0.84214    1.000
    N2746    N        0.35889    0.89125    0.90115    1.000
    N2747    N        0.43927    0.87360    0.86506    1.000
    N2748    N        0.41470    0.85677    0.80154    1.000
    Si2749   Si       0.39855    0.87456    0.76457    1.000
    Si2750   Si       0.43156    0.88851    0.82435    1.000
    Si2751   Si       0.36786    0.85122    0.88590    1.000
    N2752    N        0.29334    0.87205    0.88453    1.000
    Si2753   Si       0.25514    0.85034    0.96574    1.000
    N2754    N        0.29860    0.84571    0.95089    1.000
    N2755    N        0.26580    0.88637    0.98863    1.000
    Si2756   Si       0.30693    0.87573    0.98256    1.000
    N2757    N        0.28757    0.83252    0.83278    1.000
    Si2758   Si       0.43238    0.83076    0.86825    1.000
    Si2759   Si       0.24648    0.90159    0.02420    1.000
    N2760    N        0.25258    0.94517    0.01713    1.000
    Si2761   Si       0.33693    0.94603    0.99901    1.000
    N2762    N        0.31940    0.94763    0.03877    1.000
    N2763    N        0.27756    0.91873    0.12337    1.000
    N2764    N        0.45954    0.93005    0.08756    1.000
    Si2765   Si       0.42000    0.92905    0.10402    1.000
    N2766    N        0.38608    0.93566    0.07739    1.000
    N2767    N        0.38022    0.94625    0.00187    1.000
    Si2768   Si       0.48229    0.89720    0.00446    1.000
    Si2769   Si       0.48339    0.89465    0.07512    1.000
    Si2770   Si       0.27097    0.90065    0.16370    1.000
    N2771    N        0.24805    0.92963    0.18853    1.000
    N2772    N        0.35278    0.89849    0.23563    1.000
    Si2773   Si       0.33350    0.91720    0.20180    1.000
    N2774    N        0.47305    0.93303    0.24105    1.000
    N2775    N        0.46230    0.90516    0.17692    1.000
    Si2776   Si       0.45874    0.94091    0.20082    1.000
    N2777    N        0.36803    0.91913    0.17569    1.000
    N2778    N        0.28936    0.91284    0.31930    1.000
    Si2779   Si       0.35537    0.90455    0.34749    1.000
    Si2780   Si       0.25121    0.91646    0.29292    1.000
    Si2781   Si       0.36331    0.91861    0.27394    1.000
    N2782    N        0.36236    0.88981    0.30750    1.000
    N2783    N        0.47506    0.94584    0.30793    1.000
    N2784    N        0.45277    0.92172    0.36521    1.000
    N2785    N        0.39442    0.94688    0.27863    1.000
    N2786    N        0.39157    0.89950    0.36935    1.000
    N2787    N        0.26349    0.93666    0.45743    1.000
    N2788    N        0.32033    0.90746    0.43697    1.000
    Si2789   Si       0.35210    0.88978    0.46312    1.000
    Si2790   Si       0.30021    0.94492    0.43628    1.000
    Si2791   Si       0.25674    0.89273    0.45792    1.000
    Si2792   Si       0.46436    0.92987    0.40521    1.000
    N2793    N        0.36459    0.92432    0.48562    1.000
    Si2794   Si       0.39093    0.91652    0.41078    1.000
    N2795    N        0.42764    0.93401    0.42670    1.000
    N2796    N        0.49106    0.90073    0.42310    1.000
    N2797    N        0.34537    0.94628    0.34123    1.000
    Si2798   Si       0.48121    0.89222    0.24865    1.000
    N2799    N        0.27649    0.91380    0.57872    1.000
    Si2800   Si       0.34252    0.93996    0.55506    1.000
    N2801    N        0.33523    0.89629    0.55137    1.000
    N2802    N        0.46346    0.94260    0.64990    1.000
    Si2803   Si       0.39652    0.92080    0.51773    1.000
    Si2804   Si       0.46605    0.89639    0.49863    1.000
    N2805    N        0.43369    0.92557    0.49625    1.000
    Si2806   Si       0.42585    0.92177    0.64748    1.000
    N2807    N        0.41346    0.90807    0.68632    1.000
    Si2808   Si       0.24336    0.90190    0.64206    1.000
    Si2809   Si       0.35392    0.94232    0.63209    1.000
    Si2810   Si       0.25108    0.91624    0.71401    1.000
    N2811    N        0.35195    0.92048    0.72266    1.000
    N2812    N        0.27422    0.93555    0.64367    1.000
    N2813    N        0.34671    0.90373    0.64761    1.000
    Si2814   Si       0.32425    0.91921    0.68840    1.000
    N2815    N        0.28868    0.93751    0.71231    1.000
    Si2816   Si       0.39474    0.92918    0.71904    1.000
    N2817    N        0.32938    0.91272    0.84214    1.000
    Si2818   Si       0.25071    0.93319    0.83098    1.000
    N2819    N        0.31431    0.93883    0.77746    1.000
    Si2820   Si       0.32715    0.90311    0.75640    1.000
    Si2821   Si       0.32042    0.94990    0.81931    1.000
    N2822    N        0.26133    0.89421    0.81622    1.000
    N2823    N        0.39781    0.91498    0.82638    1.000
    N2824    N        0.41471    0.91186    0.75349    1.000
    N2825    N        0.47903    0.93078    0.86669    1.000
    N2826    N        0.47126    0.89392    0.80810    1.000
    N2827    N        0.23775    0.92684    0.87257    1.000
    Si2828   Si       0.32076    0.90630    0.88557    1.000
    N2829    N        0.30289    0.94106    0.90396    1.000
    N2830    N        0.33958    0.90300    0.98506    1.000
    Si2831   Si       0.25871    0.94764    0.90219    1.000
    N2832    N        0.45423    0.92789    0.99159    1.000
    Si2833   Si       0.45656    0.90282    0.89235    1.000
    N2834    N        0.47096    0.90105    0.93174    1.000
    N2835    N        0.40371    0.90510    0.95437    1.000
    Si2836   Si       0.38638    0.92047    0.91680    1.000
    N2837    N        0.42548    0.93352    0.90086    1.000
    Si2838   Si       0.38225    0.90489    0.99175    1.000
    Si2839   Si       0.43961    0.93025    0.95010    1.000
    Si2840   Si       0.36195    0.88996    0.82403    1.000
    N2841    N        0.25982    0.97325    0.08483    1.000
    N2842    N        0.32861    0.96879    0.10205    1.000
    Si2843   Si       0.27946    0.96443    0.04616    1.000
    Si2844   Si       0.35132    0.95895    0.06578    1.000
    Si2845   Si       0.28877    0.96187    0.11491    1.000
    N2846    N        0.28435    0.00504    0.02799    1.000
    N2847    N        0.36889    0.99517    0.04408    1.000
    N2848    N        0.43986    0.98669    0.02521    1.000
    Si2849   Si       0.39920    0.98386    0.01009    1.000
    Si2850   Si       0.47822    0.96421    0.00897    1.000
    N2851    N        0.46566    0.00315    0.09175    1.000
    Si2852   Si       0.48531    0.96351    0.08855    1.000
    Si2853   Si       0.42723    0.99885    0.11727    1.000
    Si2854   Si       0.35178    0.99730    0.12386    1.000
    Si2855   Si       0.27102    0.96547    0.19561    1.000
    N2856    N        0.28192    0.98188    0.15322    1.000
    N2857    N        0.24693    0.99350    0.22015    1.000
    N2858    N        0.31033    0.95401    0.21269    1.000
    Si2859   Si       0.33008    0.97815    0.24520    1.000
    Si2860   Si       0.40598    0.96902    0.24338    1.000
    Si2861   Si       0.39161    0.95570    0.16871    1.000
    N2862    N        0.36474    0.98649    0.16329    1.000
    N2863    N        0.37000    0.99188    0.23167    1.000
    N2864    N        0.41824    0.95471    0.20313    1.000
    N2865    N        0.41881    0.95886    0.13371    1.000
    N2866    N        0.48512    0.96946    0.18318    1.000
    N2867    N        0.29776    0.98720    0.32939    1.000
    Si2868   Si       0.27010    0.98050    0.36358    1.000
    Si2869   Si       0.26278    0.99604    0.26297    1.000
    N2870    N        0.26489    0.95621    0.27818    1.000
    N2871    N        0.33571    0.95322    0.27890    1.000
    Si2872   Si       0.30404    0.95044    0.30752    1.000
    N2873    N        0.23805    0.95452    0.35232    1.000
    N2874    N        0.48504    0.96844    0.40420    1.000
    Si2875   Si       0.37064    0.96797    0.31042    1.000
    N2876    N        0.40545    0.97205    0.33893    1.000
    Si2877   Si       0.47535    0.96461    0.27078    1.000
    N2878    N        0.46150    0.99512    0.34960    1.000
    N2879    N        0.44246    0.99047    0.25742    1.000
    Si2880   Si       0.44671    0.95444    0.33760    1.000
    Si2881   Si       0.42050    0.00885    0.35756    1.000
    Si2882   Si       0.33636    0.96955    0.37497    1.000
    N2883    N        0.31943    0.97918    0.46106    1.000
    N2884    N        0.29694    0.96428    0.39398    1.000
    Si2885   Si       0.35182    0.96579    0.48726    1.000
    N2886    N        0.36548    0.95393    0.40683    1.000
    Si2887   Si       0.42599    0.95524    0.46583    1.000
    N2888    N        0.39018    0.98104    0.46790    1.000
    N2889    N        0.45970    0.98097    0.46919    1.000
    Si2890   Si       0.37758    0.99175    0.42591    1.000
    N2891    N        0.26742    0.97748    0.56286    1.000
    N2892    N        0.32677    0.96744    0.52546    1.000
    Si2893   Si       0.29339    0.99736    0.53195    1.000
    Si2894   Si       0.28316    0.95455    0.59946    1.000
    N2895    N        0.26228    0.00309    0.50074    1.000
    Si2896   Si       0.40456    0.98664    0.55366    1.000
    N2897    N        0.44117    0.97027    0.57835    1.000
    Si2898   Si       0.41774    0.98449    0.61445    1.000
    Si2899   Si       0.46230    0.99915    0.50986    1.000
    Si2900   Si       0.48299    0.96319    0.57648    1.000
    N2901    N        0.42177    0.00749    0.51969    1.000
    N2902    N        0.28651    0.99370    0.62665    1.000
    N2903    N        0.33368    0.99073    0.74068    1.000
    N2904    N        0.33427    0.96105    0.67026    1.000
    N2905    N        0.27857    0.00064    0.69146    1.000
    Si2906   Si       0.35645    0.98405    0.70069    1.000
    Si2907   Si       0.29054    0.96942    0.66422    1.000
    Si2908   Si       0.24304    0.98908    0.71342    1.000
    Si2909   Si       0.47387    0.98517    0.64852    1.000
    N2910    N        0.39655    0.97204    0.71439    1.000
    N2911    N        0.39633    0.95213    0.63042    1.000
    Si2912   Si       0.41464    0.00061    0.74307    1.000
    N2913    N        0.43910    0.00916    0.64283    1.000
    N2914    N        0.33220    0.94964    0.59608    1.000
    N2915    N        0.38424    0.95007    0.54649    1.000
    N2916    N        0.28207    0.96407    0.83055    1.000
    N2917    N        0.35588    0.97454    0.82630    1.000
    N2918    N        0.25753    0.97912    0.75558    1.000
    Si2919   Si       0.26630    0.00136    0.84627    1.000
    Si2920   Si       0.29852    0.96470    0.74582    1.000
    N2921    N        0.42892    0.97415    0.84668    1.000
    N2922    N        0.41262    0.98424    0.78578    1.000
    Si2923   Si       0.39550    0.95794    0.81933    1.000
    Si2924   Si       0.43442    0.00587    0.81852    1.000
    Si2925   Si       0.29566    0.00783    0.98719    1.000
    Si2926   Si       0.24262    0.96627    0.97960    1.000
    N2927    N        0.25748    0.99115    0.88823    1.000
    Si2928   Si       0.32365    0.96940    0.92939    1.000
    N2929    N        0.31559    0.97328    0.97209    1.000
    N2930    N        0.25618    0.00694    0.96707    1.000
    N2931    N        0.36582    0.95959    0.92250    1.000
    Si2932   Si       0.45241    0.96377    0.88019    1.000
    N2933    N        0.43337    0.97549    0.95165    1.000
    N2934    N        0.47469    0.99600    0.90120    1.000
    Si2935   Si       0.39224    0.99097    0.93867    1.000
    Si2936   Si       0.57281    0.03538    0.07794    1.000
    Si2937   Si       0.55903    0.04563    0.00954    1.000
    N2938    N        0.54368    0.04942    0.04881    1.000
    N2939    N        0.60619    0.02034    0.05449    1.000
    Si2940   Si       0.63137    0.05386    0.02990    1.000
    N2941    N        0.71237    0.03401    0.00537    1.000
    N2942    N        0.59856    0.00963    0.22386    1.000
    Si2943   Si       0.49558    0.01167    0.19288    1.000
    Si2944   Si       0.55268    0.01594    0.14886    1.000
    N2945    N        0.50780    0.02539    0.15273    1.000
    Si2946   Si       0.59532    0.05057    0.20587    1.000
    N2947    N        0.58406    0.04328    0.16418    1.000
    Si2948   Si       0.60731    0.06227    0.13270    1.000
    N2949    N        0.52722    0.01024    0.22277    1.000
    Si2950   Si       0.72995    0.05050    0.23064    1.000
    N2951    N        0.64299    0.03474    0.12490    1.000
    Si2952   Si       0.63941    0.02091    0.23541    1.000
    N2953    N        0.73511    0.05542    0.18718    1.000
    N2954    N        0.63796    0.05735    0.20940    1.000
    Si2955   Si       0.73945    0.01660    0.16187    1.000
    N2956    N        0.59438    0.02664    0.33875    1.000
    N2957    N        0.56140    0.04092    0.27754    1.000
    Si2958   Si       0.52504    0.02049    0.26605    1.000
    Si2959   Si       0.59722    0.01868    0.29481    1.000
    Si2960   Si       0.57754    0.06368    0.35552    1.000
    N2961    N        0.63384    0.03501    0.27569    1.000
    Si2962   Si       0.67354    0.05055    0.28988    1.000
    N2963    N        0.69598    0.01411    0.30077    1.000
    N2964    N        0.69121    0.06018    0.25001    1.000
    N2965    N        0.51316    0.03613    0.37641    1.000
    N2966    N        0.51365    0.02275    0.44276    1.000
    Si2967   Si       0.52010    0.04094    0.48093    1.000
    Si2968   Si       0.54032    0.02934    0.40921    1.000
    N2969    N        0.60095    0.03088    0.45736    1.000
    N2970    N        0.57007    0.06046    0.39870    1.000
    Si2971   Si       0.71994    0.04215    0.44771    1.000
    Si2972   Si       0.72595    0.03998    0.37068    1.000
    N2973    N        0.73228    0.05896    0.40985    1.000
    N2974    N        0.67657    0.03128    0.44009    1.000
    Si2975   Si       0.64132    0.05268    0.45541    1.000
    N2976    N        0.69228    0.01287    0.37448    1.000
    Si2977   Si       0.52401    0.01459    0.53991    1.000
    Si2978   Si       0.53016    0.01221    0.61073    1.000
    N2979    N        0.52952    0.05773    0.54969    1.000
    N2980    N        0.54414    0.01205    0.50162    1.000
    Si2981   Si       0.58531    0.02615    0.49810    1.000
    N2982    N        0.59249    0.06068    0.52376    1.000
    N2983    N        0.64946    0.04721    0.56283    1.000
    N2984    N        0.72037    0.02261    0.54479    1.000
    Si2985   Si       0.63336    0.03479    0.60566    1.000
    Si2986   Si       0.69314    0.05238    0.56262    1.000
    N2987    N        0.71126    0.05746    0.60149    1.000
    N2988    N        0.51746    0.05157    0.62107    1.000
    Si2989   Si       0.49765    0.01722    0.71416    1.000
    N2990    N        0.51169    0.05721    0.69732    1.000
    N2991    N        0.61176    0.06316    0.62882    1.000
    N2992    N        0.66829    0.01213    0.61967    1.000
    Si2993   Si       0.70356    0.03283    0.63666    1.000
    N2994    N        0.69575    0.05177    0.67503    1.000
    N2995    N        0.63226    0.04560    0.72561    1.000
    Si2996   Si       0.73786    0.06005    0.68738    1.000
    Si2997   Si       0.66248    0.06731    0.69884    1.000
    N2998    N        0.53839    0.03309    0.80794    1.000
    Si2999   Si       0.53493    0.04440    0.76580    1.000
    Si3000   Si       0.55104    0.04723    0.84749    1.000
    N3001    N        0.59069    0.03289    0.86062    1.000
    N3002    N        0.49746    0.06628    0.76472    1.000
    N3003    N        0.64223    0.03087    0.99094    1.000
    Si3004   Si       0.62833    0.01385    0.75534    1.000
    N3005    N        0.62372    0.02573    0.79664    1.000
    N3006    N        0.69012    0.02561    0.82488    1.000
    Si3007   Si       0.65535    0.05397    0.81407    1.000
    Si3008   Si       0.71854    0.05089    0.84846    1.000
    Si3009   Si       0.69211    0.02021    0.78034    1.000
    N3010    N        0.67381    0.06128    0.77678    1.000
    N3011    N        0.73210    0.00796    0.77111    1.000
    N3012    N        0.51836    0.05278    0.87455    1.000
    N3013    N        0.52769    0.05816    0.98264    1.000
    Si3014   Si       0.51290    0.01345    0.89195    1.000
    Si3015   Si       0.68129    0.03319    0.97494    1.000
    N3016    N        0.71517    0.04684    0.89227    1.000
    N3017    N        0.54422    0.00546    0.92490    1.000
    N3018    N        0.50321    0.11024    0.03619    1.000
    Si3019   Si       0.53695    0.09229    0.11194    1.000
    N3020    N        0.57587    0.07149    0.10334    1.000
    Si3021   Si       0.50603    0.07058    0.05238    1.000
    N3022    N        0.50290    0.06870    0.09824    1.000
    N3023    N        0.59427    0.07172    0.01121    1.000
    Si3024   Si       0.60826    0.10922    0.99676    1.000
    N3025    N        0.65557    0.07070    0.06907    1.000
    Si3026   Si       0.67195    0.10514    0.04793    1.000
    N3027    N        0.65104    0.09488    0.01134    1.000
    N3028    N        0.71359    0.10904    0.04021    1.000
    Si3029   Si       0.66120    0.07231    0.11098    1.000
    N3030    N        0.54485    0.11604    0.14878    1.000
    N3031    N        0.50890    0.08768    0.19915    1.000
    N3032    N        0.58036    0.09259    0.21222    1.000
    Si3033   Si       0.54587    0.10878    0.19256    1.000
    Si3034   Si       0.49492    0.08117    0.24264    1.000
    N3035    N        0.68248    0.10389    0.18669    1.000
    Si3036   Si       0.66631    0.08763    0.22351    1.000
    N3037    N        0.63356    0.09691    0.13490    1.000
    N3038    N        0.70069    0.07831    0.12541    1.000
    Si3039   Si       0.71618    0.08847    0.16442    1.000
    N3040    N        0.52427    0.10253    0.26656    1.000
    Si3041   Si       0.55516    0.08305    0.29046    1.000
    N3042    N        0.54518    0.08064    0.33288    1.000
    N3043    N        0.59006    0.10669    0.28977    1.000
    Si3044   Si       0.50802    0.07639    0.35832    1.000
    N3045    N        0.60698    0.09340    0.36334    1.000
    N3046    N        0.65603    0.08391    0.31322    1.000
    N3047    N        0.72188    0.07654    0.34824    1.000
    Si3048   Si       0.63152    0.10801    0.28513    1.000
    Si3049   Si       0.64301    0.10863    0.34742    1.000
    Si3050   Si       0.70726    0.11438    0.36066    1.000
    N3051    N        0.64976    0.11884    0.24816    1.000
    N3052    N        0.54155    0.07848    0.48287    1.000
    Si3053   Si       0.51058    0.11016    0.48189    1.000
    N3054    N        0.51095    0.10014    0.39565    1.000
    Si3055   Si       0.59711    0.09353    0.40735    1.000
    Si3056   Si       0.65996    0.11935    0.42846    1.000
    N3057    N        0.68271    0.11824    0.46759    1.000
    N3058    N        0.72800    0.07225    0.47905    1.000
    N3059    N        0.63132    0.08803    0.43229    1.000
    N3060    N        0.66902    0.11690    0.38230    1.000
    N3061    N        0.65329    0.06370    0.49612    1.000
    Si3062   Si       0.69160    0.08577    0.49754    1.000
    Si3063   Si       0.55595    0.08370    0.52259    1.000
    Si3064   Si       0.51570    0.07739    0.58519    1.000
    N3065    N        0.53760    0.11305    0.59329    1.000
    N3066    N        0.49810    0.12126    0.52153    1.000
    N3067    N        0.55912    0.12692    0.53364    1.000
    Si3068   Si       0.63289    0.07500    0.53335    1.000
    N3069    N        0.69931    0.09016    0.54087    1.000
    N3070    N        0.62917    0.11822    0.53384    1.000
    N3071    N        0.73496    0.12062    0.59003    1.000
    N3072    N        0.58035    0.08623    0.69022    1.000
    Si3073   Si       0.60520    0.09693    0.65549    1.000
    Si3074   Si       0.60196    0.07813    0.73073    1.000
    N3075    N        0.52289    0.10974    0.66418    1.000
    Si3076   Si       0.54150    0.08567    0.70988    1.000
    Si3077   Si       0.50310    0.07216    0.65685    1.000
    N3078    N        0.52681    0.12192    0.73072    1.000
    N3079    N        0.68193    0.09808    0.72220    1.000
    N3080    N        0.64159    0.09760    0.67675    1.000
    N3081    N        0.56281    0.06812    0.74530    1.000
    N3082    N        0.56678    0.08808    0.84504    1.000
    Si3083   Si       0.50608    0.10789    0.76487    1.000
    Si3084   Si       0.60452    0.07522    0.86680    1.000
    N3085    N        0.52387    0.12071    0.80175    1.000
    N3086    N        0.63078    0.11468    0.95753    1.000
    N3087    N        0.70504    0.09396    0.84178    1.000
    Si3088   Si       0.66824    0.11288    0.85572    1.000
    Si3089   Si       0.66520    0.10106    0.76069    1.000
    N3090    N        0.63746    0.08306    0.84185    1.000
    N3091    N        0.62212    0.10949    0.75344    1.000
    N3092    N        0.53535    0.09699    0.92411    1.000
    N3093    N        0.60043    0.10064    0.90157    1.000
    Si3094   Si       0.50943    0.09297    0.88943    1.000
    Si3095   Si       0.52863    0.09977    0.96758    1.000
    Si3096   Si       0.57087    0.12149    0.92711    1.000
    N3097    N        0.56381    0.12426    0.97211    1.000
    Si3098   Si       0.70269    0.08294    0.91545    1.000
    N3099    N        0.67123    0.10790    0.89791    1.000
    N3100    N        0.73370    0.10905    0.92589    1.000
    N3101    N        0.68423    0.07058    0.95299    1.000
    Si3102   Si       0.66931    0.10388    0.97492    1.000
    Si3103   Si       0.71882    0.12130    0.81175    1.000
    Si3104   Si       0.63463    0.12225    0.91525    1.000
    Si3105   Si       0.52172    0.14751    0.05323    1.000
    N3106    N        0.54061    0.17214    0.02336    1.000
    N3107    N        0.60183    0.14315    0.02415    1.000
    N3108    N        0.54184    0.13270    0.08861    1.000
    N3109    N        0.48953    0.17520    0.06599    1.000
    N3110    N        0.66118    0.13941    0.06897    1.000
    Si3111   Si       0.63190    0.16700    0.04801    1.000
    Si3112   Si       0.66849    0.16989    0.09998    1.000
    N3113    N        0.72063    0.17682    0.02317    1.000
    Si3114   Si       0.73145    0.13626    0.01099    1.000
    Si3115   Si       0.54710    0.15368    0.12699    1.000
    N3116    N        0.55022    0.14615    0.22182    1.000
    N3117    N        0.58579    0.17245    0.13149    1.000
    Si3118   Si       0.59350    0.13263    0.22581    1.000
    Si3119   Si       0.60021    0.18142    0.17201    1.000
    Si3120   Si       0.65125    0.12414    0.16479    1.000
    N3121    N        0.61733    0.14388    0.18966    1.000
    N3122    N        0.67262    0.18060    0.21284    1.000
    N3123    N        0.66792    0.15865    0.14130    1.000
    Si3124   Si       0.59094    0.15509    0.29980    1.000
    Si3125   Si       0.52777    0.14465    0.26103    1.000
    N3126    N        0.54735    0.15640    0.29699    1.000
    N3127    N        0.60617    0.16016    0.25697    1.000
    N3128    N        0.63179    0.14157    0.31847    1.000
    N3129    N        0.70148    0.14522    0.32825    1.000
    Si3130   Si       0.66672    0.16795    0.31594    1.000
    N3131    N        0.63787    0.15827    0.43760    1.000
    Si3132   Si       0.59308    0.16073    0.44221    1.000
    Si3133   Si       0.49979    0.17761    0.47136    1.000
    N3134    N        0.57607    0.12856    0.42244    1.000
    N3135    N        0.58809    0.16546    0.48497    1.000
    Si3136   Si       0.53247    0.13447    0.41364    1.000
    N3137    N        0.52255    0.17205    0.39677    1.000
    N3138    N        0.52052    0.14251    0.45538    1.000
    Si3139   Si       0.70277    0.15098    0.48536    1.000
    Si3140   Si       0.64812    0.16325    0.24435    1.000
    Si3141   Si       0.59526    0.14455    0.52439    1.000
    N3142    N        0.49877    0.16525    0.57021    1.000
    Si3143   Si       0.52305    0.13209    0.55622    1.000
    N3144    N        0.66630    0.14546    0.58368    1.000
    N3145    N        0.69002    0.15536    0.52814    1.000
    Si3146   Si       0.64949    0.15640    0.54593    1.000
    Si3147   Si       0.66049    0.17390    0.61670    1.000
    Si3148   Si       0.70299    0.12953    0.56162    1.000
    N3149    N        0.61267    0.18173    0.54023    1.000
    N3150    N        0.58311    0.17398    0.74349    1.000
    N3151    N        0.52607    0.17292    0.69857    1.000
    N3152    N        0.52409    0.16874    0.63413    1.000
    Si3153   Si       0.60389    0.17282    0.64424    1.000
    Si3154   Si       0.50446    0.13595    0.69395    1.000
    Si3155   Si       0.54044    0.16679    0.73985    1.000
    N3156    N        0.58544    0.13436    0.64057    1.000
    Si3157   Si       0.54436    0.12919    0.63294    1.000
    Si3158   Si       0.73503    0.13030    0.69630    1.000
    N3159    N        0.65421    0.15908    0.72335    1.000
    N3160    N        0.73029    0.15153    0.73181    1.000
    Si3161   Si       0.69443    0.17583    0.73454    1.000
    N3162    N        0.64344    0.16173    0.65664    1.000
    Si3163   Si       0.66153    0.13483    0.68645    1.000
    N3164    N        0.70199    0.14373    0.67244    1.000
    N3165    N        0.57752    0.15682    0.82720    1.000
    Si3166   Si       0.55006    0.12504    0.83262    1.000
    Si3167   Si       0.67491    0.16783    0.80304    1.000
    N3168    N        0.72788    0.16076    0.82791    1.000
    N3169    N        0.66679    0.15377    0.84735    1.000
    N3170    N        0.63294    0.17215    0.78843    1.000
    Si3171   Si       0.62015    0.15398    0.74988    1.000
    N3172    N        0.68415    0.13002    0.78578    1.000
    N3173    N        0.74057    0.16878    0.90414    1.000
    N3174    N        0.56495    0.16286    0.91346    1.000
    Si3175   Si       0.57152    0.16038    0.99621    1.000
    N3176    N        0.69556    0.13732    0.98052    1.000
    Si3177   Si       0.72333    0.15166    0.94473    1.000
    N3178    N        0.62996    0.16464    0.91041    1.000
    Si3179   Si       0.68821    0.17900    0.99377    1.000
    Si3180   Si       0.71984    0.17987    0.86621    1.000
    Si3181   Si       0.65223    0.18285    0.87657    1.000
    N3182    N        0.51553    0.12625    0.86249    1.000
    Si3183   Si       0.54472    0.21444    0.03033    1.000
    N3184    N        0.58916    0.21885    0.02856    1.000
    Si3185   Si       0.50399    0.20738    0.09433    1.000
    N3186    N        0.53350    0.22834    0.07007    1.000
    N3187    N        0.59253    0.23997    0.09936    1.000
    Si3188   Si       0.61143    0.23258    0.06235    1.000
    N3189    N        0.51889    0.23226    0.99890    1.000
    Si3190   Si       0.61052    0.20617    0.11762    1.000
    Si3191   Si       0.72773    0.20399    0.05679    1.000
    N3192    N        0.70103    0.19726    0.09049    1.000
    N3193    N        0.63285    0.19638    0.08146    1.000
    N3194    N        0.65034    0.18600    0.01284    1.000
    Si3195   Si       0.70095    0.23329    0.11671    1.000
    N3196    N        0.56961    0.20616    0.18771    1.000
    Si3197   Si       0.54274    0.18864    0.21637    1.000
    N3198    N        0.50371    0.18796    0.20143    1.000
    N3199    N        0.51398    0.18360    0.12977    1.000
    Si3200   Si       0.70244    0.19714    0.24237    1.000
    N3201    N        0.73735    0.20040    0.21622    1.000
    Si3202   Si       0.67259    0.19307    0.17026    1.000
    N3203    N        0.70378    0.21999    0.15777    1.000
    N3204    N        0.63338    0.21036    0.15797    1.000
    N3205    N        0.51009    0.21415    0.31130    1.000
    N3206    N        0.58866    0.19705    0.31421    1.000
    Si3207   Si       0.54853    0.19897    0.29470    1.000
    N3208    N        0.54894    0.20895    0.25354    1.000
    N3209    N        0.59891    0.23928    0.36646    1.000
    Si3210   Si       0.61957    0.21890    0.33385    1.000
    N3211    N        0.65752    0.19860    0.34612    1.000
    Si3212   Si       0.67072    0.23040    0.28672    1.000
    N3213    N        0.66906    0.18579    0.27627    1.000
    N3214    N        0.70756    0.23801    0.31209    1.000
    N3215    N        0.73189    0.18214    0.27489    1.000
    N3216    N        0.58034    0.20008    0.42308    1.000
    Si3217   Si       0.53850    0.20945    0.41744    1.000
    N3218    N        0.50975    0.21424    0.44898    1.000
    Si3219   Si       0.60853    0.22809    0.40818    1.000
    Si3220   Si       0.65486    0.19599    0.45078    1.000
    N3221    N        0.62700    0.22013    0.47645    1.000
    Si3222   Si       0.72686    0.20402    0.43739    1.000
    N3223    N        0.65182    0.21812    0.41337    1.000
    N3224    N        0.69604    0.18853    0.46192    1.000
    N3225    N        0.71666    0.19525    0.39420    1.000
    Si3226   Si       0.67887    0.21247    0.38048    1.000
    N3227    N        0.68649    0.23963    0.24737    1.000
    Si3228   Si       0.52790    0.22565    0.52890    1.000
    N3229    N        0.57198    0.22743    0.52978    1.000
    Si3230   Si       0.59908    0.20489    0.50521    1.000
    N3231    N        0.50749    0.19141    0.51193    1.000
    Si3232   Si       0.60164    0.21722    0.57120    1.000
    N3233    N        0.57226    0.23591    0.59860    1.000
    N3234    N        0.51413    0.24058    0.56782    1.000
    N3235    N        0.62003    0.19455    0.60753    1.000
    Si3236   Si       0.73045    0.21603    0.61035    1.000
    Si3237   Si       0.59221    0.23941    0.63696    1.000
    N3238    N        0.57793    0.20434    0.65954    1.000
    N3239    N        0.51003    0.23289    0.67212    1.000
    Si3240   Si       0.53517    0.19820    0.66387    1.000
    N3241    N        0.54962    0.23667    0.73223    1.000
    N3242    N        0.69281    0.20036    0.62465    1.000
    Si3243   Si       0.70905    0.18703    0.66467    1.000
    N3244    N        0.69781    0.20567    0.70203    1.000
    N3245    N        0.58604    0.22140    0.79533    1.000
    Si3246   Si       0.52294    0.23292    0.77064    1.000
    N3247    N        0.51933    0.18991    0.77184    1.000
    Si3248   Si       0.60362    0.18869    0.81790    1.000
    Si3249   Si       0.58570    0.21615    0.75317    1.000
    N3250    N        0.62101    0.20486    0.85447    1.000
    N3251    N        0.69443    0.19684    0.77208    1.000
    Si3252   Si       0.69447    0.23880    0.77601    1.000
    N3253    N        0.67007    0.24084    0.81113    1.000
    N3254    N        0.68855    0.20384    0.88468    1.000
    N3255    N        0.51246    0.20568    0.87461    1.000
    Si3256   Si       0.59541    0.19327    0.92598    1.000
    N3257    N        0.55195    0.22433    0.91961    1.000
    Si3258   Si       0.52262    0.23285    0.95363    1.000
    N3259    N        0.50105    0.19271    0.94352    1.000
    Si3260   Si       0.54064    0.23997    0.88131    1.000
    N3261    N        0.59447    0.18817    0.96974    1.000
    Si3262   Si       0.52773    0.18510    0.91081    1.000
    Si3263   Si       0.61772    0.21104    0.99430    1.000
    Si3264   Si       0.70690    0.21620    0.92093    1.000
    N3265    N        0.70168    0.19006    0.95310    1.000
    N3266    N        0.61827    0.23122    0.91677    1.000
    Si3267   Si       0.61538    0.24146    0.87520    1.000
    Si3268   Si       0.55413    0.25769    0.09455    1.000
    N3269    N        0.55208    0.29899    0.08050    1.000
    N3270    N        0.57999    0.29987    0.01162    1.000
    Si3271   Si       0.62192    0.28249    0.01332    1.000
    Si3272   Si       0.72626    0.27881    0.06706    1.000
    N3273    N        0.63399    0.26750    0.05208    1.000
    Si3274   Si       0.65392    0.28413    0.08565    1.000
    N3275    N        0.73263    0.26121    0.10879    1.000
    N3276    N        0.66081    0.25466    0.11784    1.000
    N3277    N        0.73008    0.24457    0.04034    1.000
    Si3278   Si       0.51209    0.28364    0.14701    1.000
    N3279    N        0.53306    0.26204    0.20232    1.000
    N3280    N        0.59714    0.27205    0.16811    1.000
    N3281    N        0.53778    0.25277    0.13512    1.000
    Si3282   Si       0.56047    0.24516    0.17312    1.000
    N3283    N        0.66264    0.27901    0.18602    1.000
    Si3284   Si       0.48996    0.25710    0.20862    1.000
    N3285    N        0.73115    0.26616    0.20383    1.000
    Si3286   Si       0.69125    0.27338    0.21959    1.000
    Si3287   Si       0.63918    0.25736    0.15559    1.000
    N3288    N        0.54524    0.26803    0.32658    1.000
    Si3289   Si       0.50286    0.25344    0.32318    1.000
    Si3290   Si       0.56174    0.26332    0.36621    1.000
    N3291    N        0.52711    0.29068    0.26662    1.000
    Si3292   Si       0.55401    0.29856    0.29761    1.000
    N3293    N        0.63694    0.24723    0.30491    1.000
    Si3294   Si       0.71710    0.26513    0.34421    1.000
    Si3295   Si       0.62800    0.28949    0.30622    1.000
    N3296    N        0.60389    0.26457    0.42920    1.000
    N3297    N        0.66862    0.27268    0.45858    1.000
    Si3298   Si       0.48998    0.24962    0.46668    1.000
    N3299    N        0.59835    0.28270    0.49520    1.000
    N3300    N        0.72903    0.24944    0.43569    1.000
    Si3301   Si       0.62612    0.26280    0.46668    1.000
    N3302    N        0.69274    0.25448    0.37980    1.000
    Si3303   Si       0.69260    0.27070    0.42239    1.000
    Si3304   Si       0.69224    0.28162    0.49244    1.000
    N3305    N        0.53396    0.24533    0.39414    1.000
    Si3306   Si       0.54353    0.26520    0.58786    1.000
    Si3307   Si       0.59071    0.26719    0.53522    1.000
    N3308    N        0.56235    0.29028    0.55939    1.000
    N3309    N        0.51268    0.25862    0.50288    1.000
    Si3310   Si       0.50234    0.29683    0.51864    1.000
    N3311    N        0.52184    0.28548    0.61952    1.000
    Si3312   Si       0.69261    0.28987    0.55364    1.000
    N3313    N        0.62252    0.25522    0.56204    1.000
    N3314    N        0.70351    0.25592    0.52601    1.000
    Si3315   Si       0.63805    0.28454    0.59315    1.000
    N3316    N        0.68098    0.28421    0.59594    1.000
    Si3317   Si       0.57661    0.26727    0.71377    1.000
    N3318    N        0.57469    0.26968    0.67066    1.000
    Si3319   Si       0.53241    0.27529    0.66027    1.000
    N3320    N        0.51474    0.29085    0.69697    1.000
    Si3321   Si       0.51176    0.24790    0.71226    1.000
    Si3322   Si       0.60997    0.29597    0.66224    1.000
    N3323    N        0.60857    0.24742    0.73562    1.000
    Si3324   Si       0.69973    0.29649    0.63410    1.000
    Si3325   Si       0.70123    0.24826    0.70288    1.000
    N3326    N        0.63336    0.29585    0.69821    1.000
    N3327    N        0.67924    0.25727    0.74061    1.000
    Si3328   Si       0.64180    0.27531    0.73540    1.000
    N3329    N        0.62318    0.27125    0.62956    1.000
    N3330    N        0.69482    0.27246    0.66746    1.000
    N3331    N        0.74297    0.30119    0.62583    1.000
    N3332    N        0.57439    0.30324    0.73825    1.000
    Si3333   Si       0.57636    0.25899    0.81514    1.000
    N3334    N        0.53355    0.25925    0.80332    1.000
    Si3335   Si       0.50330    0.27730    0.83047    1.000
    N3336    N        0.59363    0.29650    0.80796    1.000
    N3337    N        0.57717    0.24817    0.85754    1.000
    N3338    N        0.71841    0.27297    0.84937    1.000
    Si3339   Si       0.72391    0.29287    0.80974    1.000
    N3340    N        0.73348    0.25841    0.78274    1.000
    Si3341   Si       0.67450    0.27205    0.83987    1.000
    N3342    N        0.64490    0.27348    0.87063    1.000
    N3343    N        0.51578    0.27420    0.87282    1.000
    N3344    N        0.51416    0.27614    0.94631    1.000
    Si3345   Si       0.50928    0.29738    0.90861    1.000
    Si3346   Si       0.72251    0.27182    0.94611    1.000
    Si3347   Si       0.64313    0.25784    0.94253    1.000
    N3348    N        0.64063    0.30086    0.93372    1.000
    N3349    N        0.68438    0.24976    0.93884    1.000
    N3350    N        0.62718    0.25165    0.98240    1.000
    N3351    N        0.48989    0.25130    0.74799    1.000
    Si3352   Si       0.56375    0.32137    0.04472    1.000
    N3353    N        0.59922    0.34266    0.05774    1.000
    Si3354   Si       0.53488    0.32747    0.10972    1.000
    N3355    N        0.53132    0.35079    0.04115    1.000
    N3356    N        0.49394    0.30841    0.11608    1.000
    Si3357   Si       0.69139    0.34399    0.07743    1.000
    N3358    N        0.63437    0.31505    0.10613    1.000
    Si3359   Si       0.62273    0.35257    0.09404    1.000
    N3360    N        0.70749    0.35346    0.11799    1.000
    N3361    N        0.69051    0.30112    0.07221    1.000
    Si3362   Si       0.58186    0.31431    0.17560    1.000
    N3363    N        0.54545    0.31634    0.15118    1.000
    N3364    N        0.57044    0.31880    0.21671    1.000
    Si3365   Si       0.59891    0.33099    0.24722    1.000
    N3366    N        0.63797    0.32405    0.23128    1.000
    N3367    N        0.70423    0.31354    0.23512    1.000
    Si3368   Si       0.71767    0.34741    0.20914    1.000
    Si3369   Si       0.65157    0.32096    0.18693    1.000
    N3370    N        0.68605    0.34491    0.18142    1.000
    N3371    N        0.61828    0.34238    0.17011    1.000
    Si3372   Si       0.53247    0.29840    0.22522    1.000
    N3373    N        0.54148    0.33626    0.31518    1.000
    Si3374   Si       0.55928    0.33932    0.35566    1.000
    N3375    N        0.59420    0.30379    0.28235    1.000
    N3376    N        0.70464    0.31217    0.42018    1.000
    Si3377   Si       0.67380    0.32177    0.33532    1.000
    Si3378   Si       0.67155    0.33059    0.25874    1.000
    N3379    N        0.71101    0.30812    0.34891    1.000
    N3380    N        0.66544    0.30920    0.29463    1.000
    N3381    N        0.63091    0.30847    0.34552    1.000
    Si3382   Si       0.62563    0.34545    0.36914    1.000
    N3383    N        0.66486    0.35822    0.35669    1.000
    Si3384   Si       0.58302    0.32225    0.48996    1.000
    N3385    N        0.52747    0.35018    0.38447    1.000
    N3386    N        0.50484    0.35445    0.45026    1.000
    Si3387   Si       0.54048    0.35031    0.42567    1.000
    N3388    N        0.56604    0.32341    0.44606    1.000
    Si3389   Si       0.59104    0.30289    0.41630    1.000
    Si3390   Si       0.51349    0.36167    0.49323    1.000
    N3391    N        0.57091    0.30434    0.37795    1.000
    N3392    N        0.72912    0.30287    0.48163    1.000
    N3393    N        0.61894    0.34890    0.47652    1.000
    N3394    N        0.62150    0.33468    0.41154    1.000
    N3395    N        0.68693    0.35934    0.47207    1.000
    Si3396   Si       0.72888    0.32210    0.38535    1.000
    Si3397   Si       0.71716    0.33504    0.45577    1.000
    N3398    N        0.58996    0.33846    0.53147    1.000
    N3399    N        0.53567    0.32746    0.50636    1.000
    Si3400   Si       0.55026    0.33008    0.54906    1.000
    N3401    N        0.49870    0.31262    0.55950    1.000
    N3402    N        0.63492    0.32738    0.58478    1.000
    N3403    N        0.67054    0.31132    0.51856    1.000
    N3404    N        0.73029    0.31061    0.55806    1.000
    Si3405   Si       0.65593    0.34792    0.50033    1.000
    Si3406   Si       0.61938    0.35668    0.55584    1.000
    Si3407   Si       0.54874    0.33838    0.73435    1.000
    N3408    N        0.55283    0.35552    0.69312    1.000
    N3409    N        0.61168    0.33837    0.64764    1.000
    Si3410   Si       0.48843    0.32223    0.71140    1.000
    Si3411   Si       0.64739    0.34865    0.62168    1.000
    N3412    N        0.68415    0.33787    0.64321    1.000
    N3413    N        0.68492    0.35270    0.71386    1.000
    Si3414   Si       0.64483    0.33465    0.71766    1.000
    Si3415   Si       0.70355    0.35898    0.67627    1.000
    Si3416   Si       0.59809    0.32282    0.77227    1.000
    Si3417   Si       0.59972    0.32903    0.83477    1.000
    Si3418   Si       0.51996    0.34597    0.85457    1.000
    N3419    N        0.50328    0.32149    0.82236    1.000
    N3420    N        0.56091    0.35181    0.83538    1.000
    N3421    N        0.50800    0.33680    0.74741    1.000
    Si3422   Si       0.49600    0.34799    0.78839    1.000
    N3423    N        0.57216    0.36046    0.76585    1.000
    N3424    N        0.62549    0.35234    0.80718    1.000
    Si3425   Si       0.66148    0.33342    0.78882    1.000
    N3426    N        0.64048    0.31620    0.75658    1.000
    N3427    N        0.68190    0.30347    0.80990    1.000
    N3428    N        0.60689    0.33047    0.87760    1.000
    N3429    N        0.51878    0.34290    0.97484    1.000
    N3430    N        0.53227    0.33510    0.89773    1.000
    Si3431   Si       0.57564    0.34772    0.90251    1.000
    N3432    N        0.58263    0.33313    0.94128    1.000
    Si3433   Si       0.59600    0.32815    0.98072    1.000
    Si3434   Si       0.51259    0.35397    0.93260    1.000
    Si3435   Si       0.49455    0.30606    0.97115    1.000
    Si3436   Si       0.66332    0.32458    0.96122    1.000
    Si3437   Si       0.64255    0.31061    0.89240    1.000
    Si3438   Si       0.71708    0.35212    0.95523    1.000
    N3439    N        0.63646    0.31900    0.99538    1.000
    N3440    N        0.67529    0.33450    0.88319    1.000
    N3441    N        0.70580    0.31078    0.95512    1.000
    Si3442   Si       0.56696    0.40050    0.09745    1.000
    N3443    N        0.57959    0.40651    0.05589    1.000
    Si3444   Si       0.50553    0.37397    0.06809    1.000
    Si3445   Si       0.60258    0.37675    0.03204    1.000
    N3446    N        0.53501    0.36992    0.10176    1.000
    N3447    N        0.49985    0.41627    0.06613    1.000
    Si3448   Si       0.53667    0.36988    0.00254    1.000
    N3449    N        0.53080    0.41412    0.99900    1.000
    N3450    N        0.60097    0.38118    0.11817    1.000
    N3451    N        0.57956    0.36651    0.99727    1.000
    N3452    N        0.70939    0.36461    0.04287    1.000
    N3453    N        0.63965    0.39496    0.01663    1.000
    Si3454   Si       0.67570    0.39361    0.04217    1.000
    N3455    N        0.65693    0.37094    0.07432    1.000
    N3456    N        0.60949    0.41052    0.19136    1.000
    Si3457   Si       0.49024    0.39023    0.23352    1.000
    N3458    N        0.50298    0.41712    0.20213    1.000
    Si3459   Si       0.61913    0.38670    0.15875    1.000
    N3460    N        0.72229    0.38262    0.23069    1.000
    N3461    N        0.65799    0.40149    0.14776    1.000
    Si3462   Si       0.68989    0.37357    0.14968    1.000
    N3463    N        0.72555    0.40007    0.15918    1.000
    Si3464   Si       0.56359    0.39882    0.26570    1.000
    N3465    N        0.52384    0.38202    0.25946    1.000
    N3466    N        0.59770    0.37259    0.25967    1.000
    N3467    N        0.49782    0.38802    0.33046    1.000
    N3468    N        0.55943    0.40787    0.30981    1.000
    Si3469   Si       0.59349    0.41054    0.33876    1.000
    N3470    N        0.59154    0.36928    0.35713    1.000
    Si3471   Si       0.50272    0.38275    0.37393    1.000
    N3472    N        0.63000    0.40001    0.31667    1.000
    Si3473   Si       0.63173    0.39471    0.27347    1.000
    Si3474   Si       0.70836    0.39165    0.27029    1.000
    Si3475   Si       0.65969    0.39905    0.34802    1.000
    N3476    N        0.66861    0.37245    0.26617    1.000
    N3477    N        0.70139    0.40721    0.33756    1.000
    Si3478   Si       0.73109    0.37598    0.33966    1.000
    N3479    N        0.73154    0.36519    0.29751    1.000
    N3480    N        0.56934    0.38340    0.42580    1.000
    N3481    N        0.52456    0.40271    0.48679    1.000
    Si3482   Si       0.49656    0.40302    0.44908    1.000
    Si3483   Si       0.60742    0.36486    0.43925    1.000
    N3484    N        0.63684    0.39624    0.43565    1.000
    Si3485   Si       0.67724    0.39768    0.45401    1.000
    N3486    N        0.70894    0.40944    0.42835    1.000
    N3487    N        0.53039    0.41973    0.37495    1.000
    Si3488   Si       0.51172    0.36253    0.29668    1.000
    N3489    N        0.59841    0.38748    0.57691    1.000
    Si3490   Si       0.56005    0.40567    0.56724    1.000
    N3491    N        0.53404    0.36871    0.56124    1.000
    Si3492   Si       0.49254    0.38098    0.55731    1.000
    N3493    N        0.65165    0.37679    0.53373    1.000
    N3494    N        0.65832    0.38867    0.60988    1.000
    Si3495   Si       0.62844    0.41551    0.58917    1.000
    N3496    N        0.73674    0.40073    0.61950    1.000
    Si3497   Si       0.67122    0.41860    0.53034    1.000
    Si3498   Si       0.59509    0.38690    0.74000    1.000
    Si3499   Si       0.54465    0.39956    0.69087    1.000
    N3500    N        0.57553    0.40449    0.66052    1.000
    N3501    N        0.56345    0.41297    0.72690    1.000
    Si3502   Si       0.59088    0.36415    0.67445    1.000
    N3503    N        0.50710    0.41960    0.69118    1.000
    Si3504   Si       0.70434    0.37816    0.74582    1.000
    N3505    N        0.69146    0.40212    0.66929    1.000
    Si3506   Si       0.69404    0.40693    0.62669    1.000
    N3507    N        0.61493    0.36490    0.70987    1.000
    N3508    N        0.73697    0.38049    0.55061    1.000
    N3509    N        0.51554    0.38832    0.79283    1.000
    Si3510   Si       0.55760    0.38085    0.80095    1.000
    N3511    N        0.58499    0.41334    0.81451    1.000
    N3512    N        0.50188    0.38412    0.86326    1.000
    N3513    N        0.62474    0.40703    0.76314    1.000
    Si3514   Si       0.62384    0.39669    0.80488    1.000
    Si3515   Si       0.69331    0.39797    0.81883    1.000
    N3516    N        0.71510    0.37696    0.84786    1.000
    N3517    N        0.65386    0.41072    0.83221    1.000
    N3518    N        0.68572    0.36941    0.78470    1.000
    N3519    N        0.56783    0.39002    0.89857    1.000
    N3520    N        0.51238    0.39613    0.93135    1.000
    Si3521   Si       0.52677    0.41169    0.88969    1.000
    N3522    N        0.62117    0.41215    0.94710    1.000
    N3523    N        0.67633    0.40815    0.89749    1.000
    Si3524   Si       0.66542    0.40762    0.93962    1.000
    N3525    N        0.67646    0.36693    0.95461    1.000
    Si3526   Si       0.69837    0.37010    0.88788    1.000
    N3527    N        0.73204    0.36180    0.91612    1.000
    Si3528   Si       0.59441    0.44717    0.04570    1.000
    Si3529   Si       0.52401    0.43874    0.03636    1.000
    N3530    N        0.55484    0.46631    0.05213    1.000
    Si3531   Si       0.60007    0.46523    0.10963    1.000
    N3532    N        0.49632    0.47145    0.02362    1.000
    N3533    N        0.56401    0.43919    0.11576    1.000
    N3534    N        0.61057    0.45605    0.00826    1.000
    N3535    N        0.62323    0.45252    0.07689    1.000
    N3536    N        0.68615    0.43673    0.04629    1.000
    Si3537   Si       0.72424    0.45467    0.03148    1.000
    Si3538   Si       0.66447    0.46455    0.07477    1.000
    N3539    N        0.68461    0.45235    0.11072    1.000
    Si3540   Si       0.72689    0.44654    0.10395    1.000
    N3541    N        0.73682    0.47197    0.07074    1.000
    Si3542   Si       0.53460    0.44495    0.21290    1.000
    Si3543   Si       0.53078    0.46071    0.13491    1.000
    N3544    N        0.54170    0.47030    0.17610    1.000
    N3545    N        0.56586    0.43200    0.23830    1.000
    Si3546   Si       0.60690    0.43978    0.22156    1.000
    N3547    N        0.51249    0.47517    0.23807    1.000
    N3548    N        0.49191    0.43821    0.13751    1.000
    Si3549   Si       0.72838    0.43954    0.17275    1.000
    N3550    N        0.68824    0.45590    0.17739    1.000
    N3551    N        0.62250    0.46680    0.14609    1.000
    Si3552   Si       0.66062    0.44436    0.14493    1.000
    N3553    N        0.72637    0.47892    0.99362    1.000
    Si3554   Si       0.72902    0.46107    0.24484    1.000
    N3555    N        0.52260    0.46286    0.31673    1.000
    N3556    N        0.59393    0.45761    0.33466    1.000
    Si3557   Si       0.52506    0.42284    0.33178    1.000
    N3558    N        0.66921    0.42697    0.48648    1.000
    Si3559   Si       0.66079    0.46861    0.26982    1.000
    N3560    N        0.70775    0.43434    0.27430    1.000
    Si3561   Si       0.63428    0.46465    0.34677    1.000
    Si3562   Si       0.70420    0.44497    0.31798    1.000
    N3563    N        0.66557    0.46258    0.31531    1.000
    N3564    N        0.63570    0.43400    0.25617    1.000
    N3565    N        0.73656    0.46816    0.33248    1.000
    N3566    N        0.63852    0.42646    0.37422    1.000
    Si3567   Si       0.65415    0.46418    0.47470    1.000
    N3568    N        0.64964    0.46233    0.43151    1.000
    Si3569   Si       0.51414    0.47821    0.45832    1.000
    N3570    N        0.58832    0.44786    0.42635    1.000
    N3571    N        0.51570    0.44170    0.43377    1.000
    Si3572   Si       0.55264    0.42392    0.41361    1.000
    N3573    N        0.61156    0.46870    0.49128    1.000
    Si3574   Si       0.62646    0.43177    0.41513    1.000
    Si3575   Si       0.50987    0.45166    0.58660    1.000
    N3576    N        0.54673    0.42909    0.60117    1.000
    N3577    N        0.56638    0.43277    0.53463    1.000
    Si3578   Si       0.52637    0.43280    0.51612    1.000
    N3579    N        0.50367    0.42449    0.55236    1.000
    Si3580   Si       0.60026    0.46196    0.53315    1.000
    N3581    N        0.50111    0.46386    0.49773    1.000
    N3582    N        0.61350    0.44887    0.61144    1.000
    N3583    N        0.63954    0.44353    0.55389    1.000
    N3584    N        0.71001    0.43935    0.53615    1.000
    Si3585   Si       0.66005    0.47209    0.58056    1.000
    N3586    N        0.68587    0.45189    0.61293    1.000
    Si3587   Si       0.57740    0.43581    0.63079    1.000
    Si3588   Si       0.49853    0.46517    0.69697    1.000
    Si3589   Si       0.55579    0.45229    0.73943    1.000
    N3590    N        0.57087    0.47603    0.64764    1.000
    N3591    N        0.53830    0.47496    0.70752    1.000
    Si3592   Si       0.71337    0.47473    0.64050    1.000
    N3593    N        0.70742    0.46911    0.68295    1.000
    N3594    N        0.69910    0.42203    0.73801    1.000
    N3595    N        0.64664    0.45461    0.70813    1.000
    Si3596   Si       0.68787    0.43469    0.69753    1.000
    N3597    N        0.52759    0.45328    0.77296    1.000
    Si3598   Si       0.58804    0.44267    0.84695    1.000
    Si3599   Si       0.51418    0.47061    0.85545    1.000
    Si3600   Si       0.49749    0.42824    0.79011    1.000
    N3601    N        0.59380    0.46862    0.75033    1.000
    N3602    N        0.54749    0.44089    0.86382    1.000
    N3603    N        0.60082    0.47667    0.82544    1.000
    N3604    N        0.49049    0.45760    0.82182    1.000
    N3605    N        0.71455    0.43222    0.80549    1.000
    N3606    N        0.66556    0.47166    0.85336    1.000
    Si3607   Si       0.69860    0.45290    0.76941    1.000
    N3608    N        0.65799    0.46386    0.77927    1.000
    Si3609   Si       0.63158    0.44686    0.74842    1.000
    Si3610   Si       0.65423    0.43346    0.86760    1.000
    N3611    N        0.49685    0.45999    0.95237    1.000
    Si3612   Si       0.52676    0.42939    0.95580    1.000
    N3613    N        0.56190    0.44724    0.93471    1.000
    N3614    N        0.49252    0.44254    0.88851    1.000
    Si3615   Si       0.59137    0.42190    0.91501    1.000
    N3616    N        0.61444    0.43795    0.88268    1.000
    N3617    N        0.67296    0.44068    0.96832    1.000
    Si3618   Si       0.63588    0.42663    0.98737    1.000
    Si3619   Si       0.54743    0.49923    0.07689    1.000
    N3620    N        0.58490    0.50394    0.09866    1.000
    N3621    N        0.59892    0.52870    0.01193    1.000
    N3622    N        0.51835    0.49158    0.10779    1.000
    Si3623   Si       0.55591    0.53145    0.00785    1.000
    N3624    N        0.53766    0.52826    0.04867    1.000
    N3625    N        0.66204    0.50793    0.07124    1.000
    Si3626   Si       0.67938    0.52199    0.03339    1.000
    N3627    N        0.72102    0.52930    0.03798    1.000
    N3628    N        0.73247    0.53264    0.11338    1.000
    N3629    N        0.66439    0.50295    0.99773    1.000
    Si3630   Si       0.59250    0.54011    0.12026    1.000
    Si3631   Si       0.61619    0.49850    0.17576    1.000
    Si3632   Si       0.48904    0.51894    0.12680    1.000
    N3633    N        0.55008    0.52947    0.21936    1.000
    Si3634   Si       0.54640    0.51264    0.18076    1.000
    N3635    N        0.58564    0.52490    0.16206    1.000
    N3636    N        0.60736    0.48419    0.21611    1.000
    N3637    N        0.51356    0.52971    0.16026    1.000
    N3638    N        0.72493    0.51206    0.18066    1.000
    Si3639   Si       0.68816    0.49445    0.19672    1.000
    N3640    N        0.65542    0.51919    0.18464    1.000
    N3641    N        0.69296    0.48645    0.23946    1.000
    N3642    N        0.54875    0.51266    0.33861    1.000
    N3643    N        0.57081    0.49715    0.27489    1.000
    Si3644   Si       0.50684    0.49355    0.34156    1.000
    Si3645   Si       0.53476    0.50732    0.25364    1.000
    Si3646   Si       0.60543    0.51082    0.25121    1.000
    N3647    N        0.50497    0.53609    0.26938    1.000
    N3648    N        0.70828    0.52651    0.29458    1.000
    N3649    N        0.64664    0.51048    0.26865    1.000
    Si3650   Si       0.68490    0.53039    0.25840    1.000
    Si3651   Si       0.72891    0.51003    0.33020    1.000
    N3652    N        0.69811    0.53144    0.35308    1.000
    Si3653   Si       0.65114    0.50287    0.41385    1.000
    N3654    N        0.55259    0.49628    0.46586    1.000
    N3655    N        0.50092    0.48565    0.38380    1.000
    Si3656   Si       0.59171    0.48201    0.45432    1.000
    N3657    N        0.61120    0.51685    0.43370    1.000
    N3658    N        0.67803    0.49893    0.48140    1.000
    Si3659   Si       0.71499    0.51200    0.45801    1.000
    N3660    N        0.63882    0.49941    0.37197    1.000
    N3661    N        0.69097    0.51478    0.42234    1.000
    Si3662   Si       0.56297    0.48104    0.31450    1.000
    N3663    N        0.58113    0.49637    0.55136    1.000
    N3664    N        0.51410    0.49263    0.57823    1.000
    Si3665   Si       0.54846    0.51587    0.57192    1.000
    N3666    N        0.57737    0.52731    0.60509    1.000
    Si3667   Si       0.60851    0.53053    0.56787    1.000
    N3668    N        0.63658    0.50946    0.59301    1.000
    Si3669   Si       0.66657    0.51988    0.51711    1.000
    N3670    N        0.68137    0.49650    0.54960    1.000
    Si3671   Si       0.73257    0.53023    0.60753    1.000
    Si3672   Si       0.72019    0.48048    0.54423    1.000
    N3673    N        0.62668    0.53247    0.52726    1.000
    N3674    N        0.73792    0.50601    0.51411    1.000
    Si3675   Si       0.60551    0.49206    0.62276    1.000
    Si3676   Si       0.56333    0.49936    0.68276    1.000
    N3677    N        0.59509    0.51616    0.70823    1.000
    Si3678   Si       0.50144    0.53181    0.67641    1.000
    N3679    N        0.54376    0.53566    0.66724    1.000
    N3680    N        0.49667    0.53673    0.71742    1.000
    N3681    N        0.67122    0.52079    0.70886    1.000
    Si3682   Si       0.63622    0.49545    0.69751    1.000
    Si3683   Si       0.71151    0.50231    0.71085    1.000
    N3684    N        0.69857    0.51612    0.63192    1.000
    N3685    N        0.63234    0.50363    0.65496    1.000
    Si3686   Si       0.65724    0.52861    0.62974    1.000
    N3687    N        0.74022    0.53632    0.71091    1.000
    Si3688   Si       0.57940    0.51309    0.81321    1.000
    N3689    N        0.54649    0.51744    0.76867    1.000
    N3690    N        0.53988    0.49951    0.83087    1.000
    Si3691   Si       0.51611    0.49327    0.79244    1.000
    Si3692   Si       0.58584    0.51010    0.75045    1.000
    N3693    N        0.61039    0.52580    0.78374    1.000
    N3694    N        0.66550    0.52364    0.81519    1.000
    N3695    N        0.72271    0.48363    0.75130    1.000
    Si3696   Si       0.70611    0.53197    0.82795    1.000
    Si3697   Si       0.64403    0.48518    0.81617    1.000
    N3698    N        0.70178    0.51052    0.93892    1.000
    Si3699   Si       0.55322    0.52598    0.86781    1.000
    Si3700   Si       0.56406    0.48948    0.94213    1.000
    N3701    N        0.50432    0.50290    0.88741    1.000
    N3702    N        0.54274    0.50364    0.97651    1.000
    N3703    N        0.57076    0.51314    0.90580    1.000
    Si3704   Si       0.50330    0.48790    0.98306    1.000
    Si3705   Si       0.61120    0.52415    0.92220    1.000
    N3706    N        0.60835    0.49590    0.95323    1.000
    Si3707   Si       0.68928    0.48106    0.96997    1.000
    N3708    N        0.72026    0.47727    0.88993    1.000
    Si3709   Si       0.68039    0.49797    0.88540    1.000
    N3710    N        0.64629    0.52064    0.89847    1.000
    Si3711   Si       0.62044    0.49612    0.99443    1.000
    Si3712   Si       0.51589    0.57905    0.10518    1.000
    Si3713   Si       0.52002    0.58675    0.02772    1.000
    N3714    N        0.60637    0.57350    0.06878    1.000
    N3715    N        0.56016    0.56899    0.11674    1.000
    N3716    N        0.52990    0.59604    0.06838    1.000
    Si3717   Si       0.61866    0.56410    0.02566    1.000
    N3718    N        0.66121    0.56109    0.03426    1.000
    N3719    N        0.68449    0.57748    0.09220    1.000
    Si3720   Si       0.64840    0.55025    0.08428    1.000
    N3721    N        0.69258    0.57068    0.16204    1.000
    Si3722   Si       0.57225    0.56657    0.22454    1.000
    N3723    N        0.49745    0.58945    0.22687    1.000
    N3724    N        0.63737    0.59122    0.18428    1.000
    Si3725   Si       0.65048    0.55633    0.16316    1.000
    Si3726   Si       0.71193    0.57026    0.12348    1.000
    N3727    N        0.63535    0.54607    0.12461    1.000
    N3728    N        0.70885    0.55641    0.22867    1.000
    Si3729   Si       0.72302    0.55401    0.18866    1.000
    N3730    N        0.56599    0.59897    0.18858    1.000
    Si3731   Si       0.51312    0.57896    0.26528    1.000
    Si3732   Si       0.55446    0.55077    0.35875    1.000
    N3733    N        0.56214    0.58576    0.33424    1.000
    N3734    N        0.60489    0.55432    0.24984    1.000
    Si3735   Si       0.60568    0.59179    0.33880    1.000
    N3736    N        0.63845    0.56094    0.32721    1.000
    Si3737   Si       0.62992    0.56966    0.28406    1.000
    Si3738   Si       0.68588    0.55984    0.31907    1.000
    N3739    N        0.67167    0.57139    0.27549    1.000
    Si3740   Si       0.70434    0.59267    0.25272    1.000
    Si3741   Si       0.63533    0.54117    0.36570    1.000
    N3742    N        0.54787    0.55823    0.43374    1.000
    N3743    N        0.60618    0.58877    0.43581    1.000
    Si3744   Si       0.58947    0.55155    0.42007    1.000
    N3745    N        0.59452    0.55143    0.37669    1.000
    N3746    N        0.51555    0.55781    0.37684    1.000
    N3747    N        0.57183    0.56682    0.48899    1.000
    Si3748   Si       0.54105    0.53839    0.47275    1.000
    Si3749   Si       0.51585    0.58352    0.41400    1.000
    N3750    N        0.70956    0.59542    0.33485    1.000
    Si3751   Si       0.69675    0.54580    0.39291    1.000
    N3752    N        0.73014    0.55145    0.46944    1.000
    N3753    N        0.65808    0.56529    0.39293    1.000
    N3754    N        0.72957    0.56934    0.40021    1.000
    N3755    N        0.50175    0.59601    0.30368    1.000
    N3756    N        0.55214    0.59563    0.25154    1.000
    N3757    N        0.53519    0.55474    0.55446    1.000
    N3758    N        0.59762    0.57783    0.55900    1.000
    Si3759   Si       0.60426    0.56935    0.51497    1.000
    Si3760   Si       0.49985    0.56668    0.53232    1.000
    Si3761   Si       0.55762    0.58706    0.56944    1.000
    N3762    N        0.54845    0.58824    0.61173    1.000
    Si3763   Si       0.73107    0.55011    0.51346    1.000
    N3764    N        0.71789    0.56810    0.59063    1.000
    N3765    N        0.68902    0.55781    0.52077    1.000
    Si3766   Si       0.68353    0.59226    0.60269    1.000
    Si3767   Si       0.58772    0.56109    0.70018    1.000
    Si3768   Si       0.56351    0.55506    0.63470    1.000
    N3769    N        0.59352    0.57518    0.65944    1.000
    N3770    N        0.55218    0.57537    0.72424    1.000
    N3771    N        0.62370    0.57965    0.71578    1.000
    Si3772   Si       0.73326    0.57710    0.70523    1.000
    N3773    N        0.65377    0.57146    0.62368    1.000
    N3774    N        0.69062    0.58305    0.68950    1.000
    Si3775   Si       0.66349    0.56325    0.71644    1.000
    N3776    N        0.50303    0.54617    0.49326    1.000
    N3777    N        0.50271    0.57402    0.77893    1.000
    Si3778   Si       0.60995    0.57901    0.84138    1.000
    Si3779   Si       0.52483    0.55136    0.74788    1.000
    N3780    N        0.58856    0.54077    0.84501    1.000
    N3781    N        0.71961    0.56938    0.81136    1.000
    N3782    N        0.67218    0.56650    0.75981    1.000
    Si3783   Si       0.64488    0.55139    0.78959    1.000
    N3784    N        0.62548    0.58744    0.80289    1.000
    Si3785   Si       0.70175    0.58949    0.77803    1.000
    N3786    N        0.64514    0.58084    0.86628    1.000
    N3787    N        0.52842    0.56158    0.87408    1.000
    N3788    N        0.54175    0.56764    0.99424    1.000
    N3789    N        0.60812    0.56493    0.93907    1.000
    N3790    N        0.70043    0.53497    0.87044    1.000
    Si3791   Si       0.67010    0.55784    0.89125    1.000
    N3792    N        0.68066    0.57697    0.92825    1.000
    N3793    N        0.72618    0.56200    0.98451    1.000
    Si3794   Si       0.71039    0.55339    0.94577    1.000
    N3795    N        0.73250    0.59320    0.74496    1.000
    N3796    N        0.58281    0.63356    0.05108    1.000
    N3797    N        0.52886    0.62596    0.00840    1.000
    Si3798   Si       0.54767    0.65506    0.03373    1.000
    N3799    N        0.56529    0.63331    0.11574    1.000
    Si3800   Si       0.57260    0.59969    0.08220    1.000
    N3801    N        0.61857    0.59930    0.00034    1.000
    Si3802   Si       0.62078    0.62932    0.03110    1.000
    N3803    N        0.65749    0.62720    0.05368    1.000
    N3804    N        0.72337    0.60804    0.03783    1.000
    Si3805   Si       0.72922    0.60513    0.99432    1.000
    Si3806   Si       0.49098    0.63681    0.15902    1.000
    Si3807   Si       0.60650    0.61896    0.19256    1.000
    Si3808   Si       0.53136    0.61250    0.21416    1.000
    N3809    N        0.59733    0.63553    0.23214    1.000
    N3810    N        0.51473    0.64821    0.19548    1.000
    N3811    N        0.51216    0.60363    0.14073    1.000
    Si3812   Si       0.55495    0.60193    0.14689    1.000
    N3813    N        0.60972    0.65153    0.16320    1.000
    Si3814   Si       0.73909    0.64489    0.05772    1.000
    Si3815   Si       0.67731    0.60800    0.18347    1.000
    N3816    N        0.73536    0.60673    0.13267    1.000
    Si3817   Si       0.71513    0.64382    0.13354    1.000
    N3818    N        0.68012    0.64119    0.15772    1.000
    N3819    N        0.69677    0.62295    0.22052    1.000
    Si3820   Si       0.68501    0.59455    0.05323    1.000
    Si3821   Si       0.57854    0.62545    0.27260    1.000
    Si3822   Si       0.53281    0.61496    0.32888    1.000
    N3823    N        0.54717    0.64583    0.29741    1.000
    N3824    N        0.73869    0.63477    0.38426    1.000
    N3825    N        0.73583    0.61628    0.45008    1.000
    N3826    N        0.61263    0.60935    0.29746    1.000
    Si3827   Si       0.70917    0.62920    0.30603    1.000
    N3828    N        0.67597    0.64005    0.27860    1.000
    Si3829   Si       0.63872    0.64564    0.29746    1.000
    N3830    N        0.73520    0.61162    0.27848    1.000
    Si3831   Si       0.74064    0.59368    0.36538    1.000
    N3832    N        0.65889    0.62638    0.43667    1.000
    N3833    N        0.52603    0.63056    0.36838    1.000
    Si3834   Si       0.49562    0.64168    0.44291    1.000
    N3835    N        0.58461    0.63500    0.47338    1.000
    N3836    N        0.53067    0.61635    0.43976    1.000
    Si3837   Si       0.56712    0.59660    0.45571    1.000
    Si3838   Si       0.62817    0.62578    0.46929    1.000
    Si3839   Si       0.69571    0.63828    0.45996    1.000
    N3840    N        0.61602    0.61724    0.37388    1.000
    Si3841   Si       0.63605    0.60151    0.40842    1.000
    N3842    N        0.55518    0.63007    0.55694    1.000
    Si3843   Si       0.51358    0.63859    0.56303    1.000
    N3844    N        0.51456    0.64482    0.60613    1.000
    N3845    N        0.49042    0.60976    0.53934    1.000
    N3846    N        0.61359    0.62605    0.60857    1.000
    Si3847   Si       0.62086    0.61650    0.56700    1.000
    N3848    N        0.69116    0.62904    0.50212    1.000
    N3849    N        0.73228    0.63311    0.56818    1.000
    N3850    N        0.66245    0.60505    0.56587    1.000
    N3851    N        0.61802    0.65385    0.54544    1.000
    N3852    N        0.63287    0.59768    0.50276    1.000
    Si3853   Si       0.71308    0.65235    0.53053    1.000
    Si3854   Si       0.71924    0.65357    0.60796    1.000
    Si3855   Si       0.67068    0.59694    0.52352    1.000
    Si3856   Si       0.54095    0.61567    0.71824    1.000
    Si3857   Si       0.53944    0.62182    0.63544    1.000
    N3858    N        0.57912    0.63727    0.71235    1.000
    N3859    N        0.52480    0.61276    0.67583    1.000
    N3860    N        0.56820    0.65279    0.64467    1.000
    Si3861   Si       0.62131    0.62384    0.71352    1.000
    N3862    N        0.69543    0.62387    0.62885    1.000
    Si3863   Si       0.68467    0.62145    0.67098    1.000
    N3864    N        0.64140    0.62388    0.67566    1.000
    Si3865   Si       0.62491    0.60013    0.64308    1.000
    N3866    N        0.71579    0.64303    0.69233    1.000
    N3867    N        0.51630    0.62191    0.83066    1.000
    Si3868   Si       0.50048    0.61711    0.78947    1.000
    N3869    N        0.57883    0.60750    0.85102    1.000
    N3870    N        0.52472    0.63328    0.75527    1.000
    Si3871   Si       0.59150    0.64784    0.85034    1.000
    Si3872   Si       0.53644    0.60123    0.86219    1.000
    N3873    N        0.72346    0.63229    0.84951    1.000
    N3874    N        0.68661    0.62605    0.79156    1.000
    Si3875   Si       0.64091    0.62649    0.79133    1.000
    N3876    N        0.62097    0.65181    0.81995    1.000
    N3877    N        0.63629    0.64204    0.75133    1.000
    N3878    N        0.50228    0.60592    0.94790    1.000
    N3879    N        0.53144    0.64248    0.89200    1.000
    N3880    N        0.57223    0.62170    0.95027    1.000
    Si3881   Si       0.50034    0.64446    0.92511    1.000
    Si3882   Si       0.53998    0.60586    0.97029    1.000
    Si3883   Si       0.61176    0.60247    0.95712    1.000
    Si3884   Si       0.56779    0.65229    0.91696    1.000
    N3885    N        0.60273    0.65422    0.89137    1.000
    Si3886   Si       0.68867    0.62018    0.93282    1.000
    N3887    N        0.73058    0.62004    0.91849    1.000
    N3888    N        0.69565    0.62695    0.97628    1.000
    N3889    N        0.64189    0.63246    0.94487    1.000
    Si3890   Si       0.72097    0.64977    0.88812    1.000
    Si3891   Si       0.60191    0.69952    0.01598    1.000
    N3892    N        0.52439    0.67448    0.06418    1.000
    N3893    N        0.56144    0.68554    0.00683    1.000
    Si3894   Si       0.49600    0.70413    0.05119    1.000
    Si3895   Si       0.53501    0.66523    0.10650    1.000
    N3896    N        0.56972    0.69383    0.11503    1.000
    N3897    N        0.67295    0.70014    0.05817    1.000
    N3898    N        0.62881    0.66576    0.00738    1.000
    N3899    N        0.63800    0.66716    0.10890    1.000
    Si3900   Si       0.66778    0.66159    0.07830    1.000
    N3901    N        0.73474    0.67626    0.02765    1.000
    N3902    N        0.70932    0.65143    0.08973    1.000
    N3903    N        0.66159    0.70899    0.16621    1.000
    Si3904   Si       0.59832    0.66111    0.12088    1.000
    Si3905   Si       0.49992    0.68002    0.22156    1.000
    N3906    N        0.49732    0.66771    0.12868    1.000
    N3907    N        0.59725    0.70859    0.21590    1.000
    Si3908   Si       0.60941    0.67625    0.23792    1.000
    N3909    N        0.73505    0.67920    0.14981    1.000
    Si3910   Si       0.64768    0.66941    0.15315    1.000
    N3911    N        0.65081    0.68057    0.22627    1.000
    Si3912   Si       0.70711    0.71363    0.15510    1.000
    Si3913   Si       0.68854    0.66242    0.24224    1.000
    N3914    N        0.58256    0.68283    0.35044    1.000
    Si3915   Si       0.58235    0.69357    0.30768    1.000
    Si3916   Si       0.51598    0.67764    0.29657    1.000
    N3917    N        0.60635    0.66974    0.28237    1.000
    N3918    N        0.49295    0.67013    0.33298    1.000
    N3919    N        0.54413    0.71105    0.29567    1.000
    Si3920   Si       0.68155    0.68886    0.33309    1.000
    N3921    N        0.71342    0.69476    0.25980    1.000
    N3922    N        0.71885    0.66701    0.32731    1.000
    N3923    N        0.64787    0.66256    0.33639    1.000
    Si3924   Si       0.61695    0.65945    0.36633    1.000
    Si3925   Si       0.50756    0.66840    0.37408    1.000
    Si3926   Si       0.57800    0.70690    0.38754    1.000
    N3927    N        0.53312    0.69993    0.38841    1.000
    N3928    N        0.58606    0.70220    0.46150    1.000
    Si3929   Si       0.55973    0.67169    0.47552    1.000
    N3930    N        0.51769    0.67697    0.45929    1.000
    N3931    N        0.68679    0.70774    0.37431    1.000
    Si3932   Si       0.62567    0.69080    0.44569    1.000
    N3933    N        0.61771    0.68709    0.40118    1.000
    N3934    N        0.71224    0.67368    0.44452    1.000
    N3935    N        0.64012    0.66764    0.47994    1.000
    N3936    N        0.57983    0.68856    0.58569    1.000
    N3937    N        0.56054    0.68608    0.51617    1.000
    N3938    N        0.50500    0.67771    0.54645    1.000
    Si3939   Si       0.57713    0.66621    0.54846    1.000
    Si3940   Si       0.59879    0.66523    0.61772    1.000
    Si3941   Si       0.64488    0.67963    0.52157    1.000
    N3942    N        0.68238    0.68051    0.54389    1.000
    N3943    N        0.69454    0.68822    0.61387    1.000
    Si3944   Si       0.69534    0.70805    0.57571    1.000
    N3945    N        0.52204    0.67421    0.70307    1.000
    Si3946   Si       0.56130    0.66758    0.68343    1.000
    N3947    N        0.57598    0.70675    0.68135    1.000
    Si3948   Si       0.49421    0.70360    0.68732    1.000
    N3949    N        0.62721    0.69975    0.71514    1.000
    Si3950   Si       0.72236    0.67259    0.72208    1.000
    N3951    N        0.62667    0.69265    0.63704    1.000
    Si3952   Si       0.65190    0.68446    0.74789    1.000
    N3953    N        0.55969    0.67871    0.84108    1.000
    N3954    N        0.50389    0.70514    0.76905    1.000
    Si3955   Si       0.52186    0.66049    0.85084    1.000
    N3956    N        0.56198    0.70437    0.75139    1.000
    Si3957   Si       0.52832    0.67641    0.74598    1.000
    Si3958   Si       0.63569    0.69235    0.81769    1.000
    N3959    N        0.67658    0.68673    0.82938    1.000
    N3960    N        0.62845    0.70520    0.77764    1.000
    Si3961   Si       0.70650    0.65461    0.81632    1.000
    N3962    N        0.73606    0.69121    0.81743    1.000
    N3963    N        0.69358    0.69285    0.74774    1.000
    N3964    N        0.67932    0.65088    0.90147    1.000
    Si3965   Si       0.54186    0.69784    0.97075    1.000
    N3966    N        0.56721    0.69094    0.93451    1.000
    N3967    N        0.50649    0.67443    0.95502    1.000
    Si3968   Si       0.66001    0.65406    0.97789    1.000
    Si3969   Si       0.64026    0.66223    0.91114    1.000
    N3970    N        0.67178    0.69461    0.96849    1.000
    N3971    N        0.63185    0.70346    0.92004    1.000
    N3972    N        0.73925    0.69628    0.95601    1.000
    N3973    N        0.54966    0.75727    0.09957    1.000
    N3974    N        0.51577    0.74078    0.04415    1.000
    Si3975   Si       0.58289    0.72898    0.09298    1.000
    Si3976   Si       0.52159    0.76472    0.01093    1.000
    N3977    N        0.60435    0.71709    0.05587    1.000
    N3978    N        0.62189    0.74379    0.11008    1.000
    Si3979   Si       0.64297    0.73196    0.06902    1.000
    Si3980   Si       0.70267    0.76540    0.08944    1.000
    N3981    N        0.71438    0.73816    0.00489    1.000
    N3982    N        0.73104    0.74070    0.06811    1.000
    N3983    N        0.66815    0.76700    0.06419    1.000
    Si3984   Si       0.53540    0.76354    0.14157    1.000
    Si3985   Si       0.56234    0.73345    0.21394    1.000
    N3986    N        0.55898    0.75920    0.17817    1.000
    N3987    N        0.50278    0.73373    0.14434    1.000
    Si3988   Si       0.49149    0.73278    0.18665    1.000
    N3989    N        0.52284    0.71642    0.21136    1.000
    Si3990   Si       0.65247    0.75109    0.14236    1.000
    N3991    N        0.72857    0.73342    0.18651    1.000
    N3992    N        0.62750    0.75867    0.18060    1.000
    N3993    N        0.65969    0.74569    0.23723    1.000
    N3994    N        0.69307    0.74039    0.12424    1.000
    Si3995   Si       0.63983    0.72225    0.20284    1.000
    Si3996   Si       0.71100    0.71146    0.04076    1.000
    N3997    N        0.60004    0.73478    0.30722    1.000
    Si3998   Si       0.56271    0.75098    0.29168    1.000
    N3999    N        0.56568    0.75973    0.24939    1.000
    N4000    N        0.72157    0.76395    0.35613    1.000
    Si4001   Si       0.63886    0.74582    0.32204    1.000
    N4002    N        0.71358    0.76035    0.28198    1.000
    Si4003   Si       0.68650    0.72921    0.26686    1.000
    N4004    N        0.63026    0.74652    0.36558    1.000
    N4005    N        0.66801    0.71977    0.30592    1.000
    N4006    N        0.56910    0.74906    0.39362    1.000
    Si4007   Si       0.52263    0.74122    0.39549    1.000
    N4008    N        0.51088    0.75047    0.43656    1.000
    Si4009   Si       0.49485    0.71499    0.46256    1.000
    N4010    N        0.60329    0.76940    0.48150    1.000
    N4011    N        0.50609    0.77249    0.37307    1.000
    Si4012   Si       0.64895    0.71809    0.39376    1.000
    N4013    N        0.71863    0.74031    0.42465    1.000
    Si4014   Si       0.71968    0.71459    0.45985    1.000
    N4015    N        0.64588    0.73104    0.43474    1.000
    Si4016   Si       0.72384    0.72989    0.38301    1.000
    N4017    N        0.69815    0.73422    0.49180    1.000
    N4018    N        0.59557    0.75803    0.57491    1.000
    Si4019   Si       0.56650    0.73111    0.58956    1.000
    N4020    N        0.53021    0.73259    0.56521    1.000
    N4021    N        0.55134    0.74634    0.50354    1.000
    N4022    N        0.49132    0.72619    0.50320    1.000
    Si4023   Si       0.58837    0.72707    0.49787    1.000
    Si4024   Si       0.52616    0.71352    0.52789    1.000
    N4025    N        0.49022    0.76566    0.61630    1.000
    Si4026   Si       0.49186    0.74705    0.57741    1.000
    Si4027   Si       0.63293    0.74772    0.55636    1.000
    N4028    N        0.71683    0.74040    0.55628    1.000
    N4029    N        0.65709    0.72892    0.58718    1.000
    Si4030   Si       0.69845    0.76273    0.52373    1.000
    N4031    N        0.62227    0.71790    0.52552    1.000
    N4032    N        0.51860    0.73938    0.68205    1.000
    N4033    N        0.55661    0.74905    0.62876    1.000
    Si4034   Si       0.56444    0.74777    0.67252    1.000
    N4035    N        0.60725    0.75742    0.66975    1.000
    Si4036   Si       0.60079    0.71722    0.74521    1.000
    N4037    N        0.66677    0.73378    0.66651    1.000
    N4038    N        0.72889    0.76516    0.65512    1.000
    N4039    N        0.70638    0.75705    0.72166    1.000
    Si4040   Si       0.61861    0.71363    0.67558    1.000
    Si4041   Si       0.70733    0.73746    0.68406    1.000
    Si4042   Si       0.66161    0.71374    0.62675    1.000
    N4043    N        0.56358    0.74240    0.80734    1.000
    Si4044   Si       0.53600    0.73518    0.77276    1.000
    Si4045   Si       0.57289    0.71899    0.84298    1.000
    N4046    N        0.51712    0.76897    0.74863    1.000
    N4047    N        0.59565    0.76060    0.74798    1.000
    N4048    N        0.50054    0.74414    0.86603    1.000
    Si4049   Si       0.59288    0.77171    0.79040    1.000
    N4050    N        0.61824    0.72068    0.84387    1.000
    N4051    N        0.70136    0.75022    0.79267    1.000
    N4052    N        0.68282    0.74977    0.85390    1.000
    Si4053   Si       0.70222    0.72236    0.82670    1.000
    Si4054   Si       0.63893    0.75940    0.84804    1.000
    Si4055   Si       0.71422    0.73242    0.75641    1.000
    Si4056   Si       0.50120    0.75798    0.95503    1.000
    N4057    N        0.59526    0.75930    0.93434    1.000
    Si4058   Si       0.53220    0.76403    0.88514    1.000
    N4059    N        0.56394    0.73408    0.88081    1.000
    Si4060   Si       0.59168    0.72118    0.91389    1.000
    N4061    N        0.53921    0.74310    0.97499    1.000
    Si4062   Si       0.58149    0.76066    0.97485    1.000
    N4063    N        0.61193    0.73041    0.98814    1.000
    Si4064   Si       0.64228    0.72447    0.95682    1.000
    Si4065   Si       0.70466    0.72197    0.96729    1.000
    N4066    N        0.67508    0.75311    0.94883    1.000
    Si4067   Si       0.58363    0.81315    0.03394    1.000
    N4068    N        0.54470    0.79388    0.03245    1.000
    Si4069   Si       0.49339    0.82000    0.10466    1.000
    N4070    N        0.53529    0.82657    0.08857    1.000
    N4071    N        0.60982    0.79631    0.06521    1.000
    Si4072   Si       0.52588    0.77943    0.06989    1.000
    Si4073   Si       0.61518    0.79025    0.10739    1.000
    N4074    N        0.65427    0.79409    0.12487    1.000
    Si4075   Si       0.68116    0.82567    0.11182    1.000
    N4076    N        0.71900    0.80321    0.10412    1.000
    Si4077   Si       0.65163    0.80630    0.05161    1.000
    N4078    N        0.66023    0.81686    0.01270    1.000
    N4079    N        0.73371    0.80589    0.01635    1.000
    Si4080   Si       0.70184    0.83381    0.00625    1.000
    N4081    N        0.53811    0.82277    0.24236    1.000
    N4082    N        0.58565    0.80249    0.13695    1.000
    N4083    N        0.60585    0.80867    0.21031    1.000
    N4084    N        0.51500    0.80352    0.14143    1.000
    Si4085   Si       0.59490    0.78483    0.17533    1.000
    Si4086   Si       0.70465    0.82538    0.23917    1.000
    N4087    N        0.67847    0.79611    0.18690    1.000
    Si4088   Si       0.71714    0.77624    0.18892    1.000
    Si4089   Si       0.64764    0.78473    0.21636    1.000
    N4090    N        0.73035    0.79489    0.22741    1.000
    Si4091   Si       0.57611    0.80255    0.24573    1.000
    N4092    N        0.60164    0.81081    0.28042    1.000
    N4093    N        0.59344    0.81030    0.35682    1.000
    Si4094   Si       0.57500    0.81510    0.31714    1.000
    Si4095   Si       0.50788    0.79063    0.33349    1.000
    N4096    N        0.54303    0.78485    0.31062    1.000
    Si4097   Si       0.63664    0.77065    0.45292    1.000
    N4098    N        0.71133    0.81779    0.33006    1.000
    Si4099   Si       0.64464    0.81517    0.28796    1.000
    N4100    N        0.65782    0.78123    0.31077    1.000
    Si4101   Si       0.70033    0.77643    0.31939    1.000
    N4102    N        0.66471    0.81388    0.24792    1.000
    N4103    N        0.54944    0.80766    0.45417    1.000
    Si4104   Si       0.50912    0.79346    0.44533    1.000
    Si4105   Si       0.56307    0.78781    0.48993    1.000
    Si4106   Si       0.72548    0.80591    0.36937    1.000
    Si4107   Si       0.66028    0.81779    0.41556    1.000
    Si4108   Si       0.71064    0.77889    0.43714    1.000
    Si4109   Si       0.69078    0.82801    0.47980    1.000
    N4110    N        0.62437    0.79308    0.41761    1.000
    N4111    N        0.69986    0.80511    0.40260    1.000
    N4112    N        0.67502    0.79225    0.45961    1.000
    N4113    N        0.49180    0.82409    0.41748    1.000
    Si4114   Si       0.60092    0.77556    0.38409    1.000
    N4115    N        0.54818    0.79978    0.58501    1.000
    Si4116   Si       0.59241    0.80120    0.58334    1.000
    Si4117   Si       0.52311    0.81133    0.55079    1.000
    N4118    N        0.55232    0.81647    0.51986    1.000
    N4119    N        0.60888    0.82082    0.61616    1.000
    N4120    N        0.48880    0.78150    0.54722    1.000
    Si4121   Si       0.52988    0.78224    0.62005    1.000
    N4122    N        0.61240    0.82230    0.55053    1.000
    N4123    N        0.71134    0.80235    0.51453    1.000
    Si4124   Si       0.65699    0.82012    0.54299    1.000
    N4125    N        0.65877    0.77719    0.53906    1.000
    Si4126   Si       0.65233    0.82837    0.61530    1.000
    N4127    N        0.67808    0.82795    0.57889    1.000
    Si4128   Si       0.51714    0.77702    0.70639    1.000
    N4129    N        0.52733    0.81987    0.64234    1.000
    N4130    N        0.55734    0.78951    0.69301    1.000
    Si4131   Si       0.59656    0.79162    0.71771    1.000
    Si4132   Si       0.55267    0.82902    0.67543    1.000
    N4133    N        0.60428    0.82994    0.74324    1.000
    N4134    N        0.66833    0.80117    0.64512    1.000
    Si4135   Si       0.71076    0.80593    0.65527    1.000
    Si4136   Si       0.64694    0.77449    0.67289    1.000
    N4137    N        0.71052    0.82230    0.69439    1.000
    Si4138   Si       0.70848    0.79862    0.73136    1.000
    N4139    N        0.63956    0.79196    0.71094    1.000
    Si4140   Si       0.64823    0.82316    0.73962    1.000
    N4141    N        0.73248    0.82825    0.62702    1.000
    N4142    N        0.57425    0.81117    0.80048    1.000
    Si4143   Si       0.53856    0.81064    0.82331    1.000
    N4144    N        0.50136    0.78707    0.81403    1.000
    N4145    N        0.54590    0.80015    0.86554    1.000
    N4146    N        0.67846    0.80713    0.76325    1.000
    N4147    N        0.68862    0.81112    0.83271    1.000
    Si4148   Si       0.67788    0.78553    0.80006    1.000
    Si4149   Si       0.70149    0.78589    0.86939    1.000
    N4150    N        0.63439    0.77383    0.80777    1.000
    N4151    N        0.49044    0.78338    0.99054    1.000
    Si4152   Si       0.60916    0.79716    0.91544    1.000
    N4153    N        0.51184    0.77830    0.92033    1.000
    N4154    N        0.57820    0.82957    0.92217    1.000
    Si4155   Si       0.69256    0.79309    0.94279    1.000
    N4156    N        0.62562    0.78715    0.87590    1.000
    N4157    N        0.69075    0.80855    0.90224    1.000
    N4158    N        0.64163    0.81726    0.93973    1.000
    Si4159   Si       0.62926    0.82202    0.98233    1.000
    N4160    N        0.73390    0.77821    0.95138    1.000
    N4161    N        0.59638    0.79572    0.99415    1.000
    N4162    N        0.58186    0.85586    0.04596    1.000
    Si4163   Si       0.55465    0.86671    0.07904    1.000
    Si4164   Si       0.60325    0.88516    0.02142    1.000
    N4165    N        0.70423    0.86682    0.03260    1.000
    Si4166   Si       0.67314    0.88039    0.05766    1.000
    N4167    N        0.66133    0.84126    0.07484    1.000
    N4168    N        0.56447    0.87072    0.12136    1.000
    Si4169   Si       0.52314    0.84373    0.20674    1.000
    Si4170   Si       0.59705    0.85452    0.20027    1.000
    N4171    N        0.55817    0.84146    0.18077    1.000
    N4172    N        0.51878    0.88228    0.22822    1.000
    N4173    N        0.57886    0.87076    0.23789    1.000
    Si4174   Si       0.55236    0.82894    0.13494    1.000
    N4175    N        0.71246    0.85277    0.20278    1.000
    N4176    N        0.64046    0.86054    0.18943    1.000
    Si4177   Si       0.67850    0.83982    0.18017    1.000
    N4178    N        0.68828    0.85637    0.13998    1.000
    N4179    N        0.55976    0.85451    0.30498    1.000
    Si4180   Si       0.53931    0.86194    0.26444    1.000
    N4181    N        0.58947    0.88336    0.35701    1.000
    N4182    N        0.49806    0.86566    0.28237    1.000
    N4183    N        0.65879    0.85344    0.30238    1.000
    Si4184   Si       0.70348    0.85352    0.30764    1.000
    N4185    N        0.72822    0.84289    0.27252    1.000
    Si4186   Si       0.60457    0.84656    0.37613    1.000
    N4187    N        0.60039    0.84667    0.47882    1.000
    Si4188   Si       0.56684    0.84764    0.45109    1.000
    N4189    N        0.58340    0.85862    0.41228    1.000
    N4190    N        0.54660    0.88468    0.46435    1.000
    Si4191   Si       0.66319    0.87996    0.40994    1.000
    N4192    N        0.72415    0.85607    0.47592    1.000
    N4193    N        0.66443    0.85190    0.44408    1.000
    N4194    N        0.64636    0.84806    0.38600    1.000
    Si4195   Si       0.63941    0.86868    0.47734    1.000
    Si4196   Si       0.57380    0.89250    0.31852    1.000
    N4197    N        0.50998    0.85018    0.56980    1.000
    Si4198   Si       0.58837    0.84084    0.52157    1.000
    Si4199   Si       0.52427    0.85148    0.61111    1.000
    N4200    N        0.57473    0.88098    0.53429    1.000
    N4201    N        0.56269    0.87185    0.61523    1.000
    N4202    N        0.66084    0.84712    0.50863    1.000
    Si4203   Si       0.71647    0.84595    0.59162    1.000
    N4204    N        0.70356    0.88833    0.60021    1.000
    Si4205   Si       0.48935    0.83891    0.66465    1.000
    Si4206   Si       0.49179    0.85779    0.72625    1.000
    Si4207   Si       0.60032    0.86372    0.63854    1.000
    Si4208   Si       0.60982    0.86475    0.71446    1.000
    N4209    N        0.49646    0.87456    0.63861    1.000
    N4210    N        0.59266    0.84821    0.67718    1.000
    N4211    N        0.52060    0.84868    0.69668    1.000
    N4212    N        0.64308    0.86989    0.62996    1.000
    N4213    N        0.65367    0.86312    0.72301    1.000
    N4214    N        0.72579    0.88236    0.73420    1.000
    N4215    N        0.52298    0.85042    0.81751    1.000
    Si4216   Si       0.59727    0.84412    0.78461    1.000
    Si4217   Si       0.55429    0.87977    0.82920    1.000
    N4218    N        0.57395    0.88094    0.78898    1.000
    Si4219   Si       0.49486    0.86357    0.78701    1.000
    N4220    N        0.57476    0.86334    0.86338    1.000
    N4221    N        0.51306    0.88566    0.75346    1.000
    N4222    N        0.63523    0.85642    0.80371    1.000
    Si4223   Si       0.66720    0.84810    0.83287    1.000
    Si4224   Si       0.50683    0.87471    0.94183    1.000
    Si4225   Si       0.58639    0.86591    0.94528    1.000
    N4226    N        0.51216    0.84917    0.90600    1.000
    N4227    N        0.60761    0.86072    0.98435    1.000
    N4228    N        0.54850    0.88608    0.94920    1.000
    Si4229   Si       0.55115    0.83612    0.88860    1.000
    N4230    N        0.49332    0.85986    0.98101    1.000
    Si4231   Si       0.61205    0.87814    0.87610    1.000
    N4232    N        0.61375    0.88779    0.91899    1.000
    N4233    N        0.68033    0.87808    0.92559    1.000
    Si4234   Si       0.66261    0.84122    0.90975    1.000
    Si4235   Si       0.71801    0.86763    0.94394    1.000
    N4236    N        0.64896    0.85460    0.87146    1.000
    N4237    N        0.70134    0.83340    0.96462    1.000
    Si4238   Si       0.53674    0.93358    0.03827    1.000
    N4239    N        0.52724    0.90034    0.06517    1.000
    N4240    N        0.51348    0.92566    0.00291    1.000
    N4241    N        0.57340    0.91541    0.01293    1.000
    N4242    N        0.68527    0.90847    0.08598    1.000
    Si4243   Si       0.65068    0.93701    0.00942    1.000
    N4244    N        0.64275    0.89931    0.03116    1.000
    Si4245   Si       0.67423    0.95038    0.07346    1.000
    Si4246   Si       0.73204    0.88950    0.18633    1.000
    N4247    N        0.58262    0.93629    0.12406    1.000
    Si4248   Si       0.56988    0.90315    0.14850    1.000
    Si4249   Si       0.55706    0.90678    0.21297    1.000
    N4250    N        0.53585    0.91586    0.17305    1.000
    N4251    N        0.59558    0.89960    0.18489    1.000
    N4252    N        0.56409    0.94487    0.23566    1.000
    Si4253   Si       0.63863    0.90528    0.18259    1.000
    N4254    N        0.73203    0.91524    0.22271    1.000
    N4255    N        0.72188    0.91089    0.14931    1.000
    N4256    N        0.66664    0.93266    0.19984    1.000
    Si4257   Si       0.69094    0.92704    0.23703    1.000
    N4258    N        0.64560    0.91138    0.13993    1.000
    Si4259   Si       0.68553    0.89699    0.12880    1.000
    Si4260   Si       0.62565    0.94678    0.12592    1.000
    N4261    N        0.54495    0.92410    0.30078    1.000
    N4262    N        0.60609    0.91202    0.29587    1.000
    Si4263   Si       0.57684    0.94071    0.27568    1.000
    N4264    N        0.69654    0.90281    0.39204    1.000
    N4265    N        0.71484    0.89310    0.32209    1.000
    Si4266   Si       0.72800    0.92879    0.29879    1.000
    N4267    N        0.65526    0.91929    0.32995    1.000
    Si4268   Si       0.69252    0.91869    0.35276    1.000
    N4269    N        0.66600    0.90113    0.25842    1.000
    Si4270   Si       0.64499    0.89362    0.29397    1.000
    Si4271   Si       0.72773    0.89713    0.49110    1.000
    Si4272   Si       0.58871    0.89939    0.39927    1.000
    N4273    N        0.55557    0.92443    0.40582    1.000
    Si4274   Si       0.53000    0.91498    0.43916    1.000
    N4275    N        0.72453    0.92606    0.45752    1.000
    N4276    N        0.62916    0.90647    0.41590    1.000
    Si4277   Si       0.64032    0.93859    0.44183    1.000
    N4278    N        0.65130    0.91198    0.47696    1.000
    Si4279   Si       0.73192    0.91949    0.41414    1.000
    Si4280   Si       0.61973    0.94648    0.32377    1.000
    Si4281   Si       0.58715    0.91867    0.54926    1.000
    N4282    N        0.50814    0.90784    0.51538    1.000
    N4283    N        0.57658    0.93631    0.58828    1.000
    Si4284   Si       0.54864    0.89784    0.50510    1.000
    N4285    N        0.56313    0.93971    0.51504    1.000
    N4286    N        0.49336    0.92183    0.58584    1.000
    Si4287   Si       0.49346    0.88819    0.55750    1.000
    N4288    N        0.62556    0.93196    0.53127    1.000
    N4289    N        0.70272    0.91106    0.52752    1.000
    Si4290   Si       0.71915    0.91484    0.57021    1.000
    Si4291   Si       0.66463    0.93097    0.51412    1.000
    Si4292   Si       0.56446    0.91546    0.62415    1.000
    Si4293   Si       0.49160    0.91688    0.62885    1.000
    Si4294   Si       0.59561    0.92991    0.69194    1.000
    N4295    N        0.59366    0.90891    0.65453    1.000
    N4296    N        0.52996    0.93276    0.64406    1.000
    N4297    N        0.58762    0.89961    0.72413    1.000
    Si4298   Si       0.67299    0.94529    0.67584    1.000
    N4299    N        0.67801    0.92838    0.74059    1.000
    Si4300   Si       0.68541    0.89200    0.71692    1.000
    Si4301   Si       0.67466    0.89992    0.63031    1.000
    N4302    N        0.66969    0.94460    0.63191    1.000
    N4303    N        0.68578    0.90391    0.67533    1.000
    N4304    N        0.63398    0.94891    0.69998    1.000
    N4305    N        0.53777    0.91981    0.83822    1.000
    Si4306   Si       0.49518    0.92510    0.82799    1.000
    Si4307   Si       0.55501    0.89937    0.75344    1.000
    N4308    N        0.55525    0.94158    0.76403    1.000
    N4309    N        0.62245    0.91180    0.84950    1.000
    N4310    N        0.62849    0.93099    0.78261    1.000
    Si4311   Si       0.71622    0.91695    0.82592    1.000
    Si4312   Si       0.64230    0.90067    0.81090    1.000
    N4313    N        0.72538    0.91865    0.86721    1.000
    N4314    N        0.68174    0.89158    0.82117    1.000
    Si4315   Si       0.54921    0.92051    0.97708    1.000
    N4316    N        0.65514    0.94141    0.90468    1.000
    Si4317   Si       0.65074    0.90718    0.93251    1.000
    Si4318   Si       0.69705    0.94169    0.89194    1.000
    N4319    N        0.65674    0.93323    0.96596    1.000
    N4320    N        0.72021    0.93572    0.92683    1.000
    Si4321   Si       0.62607    0.95044    0.87208    1.000
    N4322    N        0.73653    0.89004    0.98045    1.000
    Si4323   Si       0.55652    0.96306    0.10181    1.000
    Si4324   Si       0.60760    0.97603    0.05196    1.000
    N4325    N        0.56852    0.96133    0.05964    1.000
    N4326    N        0.50340    0.96196    0.04985    1.000
    N4327    N        0.51732    0.95610    0.11751    1.000
    N4328    N        0.56347    0.00731    0.10900    1.000
    N4329    N        0.62228    0.96813    0.01319    1.000
    N4330    N        0.69026    0.97903    0.10133    1.000
    Si4331   Si       0.72633    0.96082    0.02666    1.000
    Si4332   Si       0.73171    0.98601    0.09437    1.000
    N4333    N        0.63098    0.95591    0.08321    1.000
    N4334    N        0.73745    0.99344    0.05244    1.000
    N4335    N        0.67171    0.99385    0.22825    1.000
    N4336    N        0.55515    0.97981    0.17291    1.000
    Si4337   Si       0.56392    0.98444    0.21546    1.000
    Si4338   Si       0.51889    0.95442    0.16028    1.000
    Si4339   Si       0.66895    0.97485    0.18933    1.000
    N4340    N        0.70121    0.99556    0.16670    1.000
    N4341    N        0.64149    0.97748    0.15576    1.000
    Si4342   Si       0.67091    0.00240    0.13427    1.000
    N4343    N        0.68515    0.95431    0.03168    1.000
    N4344    N        0.59373    0.97620    0.29070    1.000
    N4345    N        0.51473    0.98281    0.28273    1.000
    N4346    N        0.52942    0.97145    0.35227    1.000
    N4347    N        0.59610    0.95255    0.36011    1.000
    Si4348   Si       0.51804    0.95470    0.31520    1.000
    Si4349   Si       0.61322    0.99564    0.36144    1.000
    N4350    N        0.64470    0.98334    0.33333    1.000
    Si4351   Si       0.68833    0.99089    0.33737    1.000
    Si4352   Si       0.70307    0.99569    0.25977    1.000
    N4353    N        0.71290    0.95552    0.33845    1.000
    N4354    N        0.70692    0.95334    0.26903    1.000
    N4355    N        0.73382    0.00300    0.46277    1.000
    Si4356   Si       0.49853    0.99497    0.37179    1.000
    N4357    N        0.56414    0.99385    0.40704    1.000
    Si4358   Si       0.55900    0.95865    0.37950    1.000
    Si4359   Si       0.59784    0.99548    0.43221    1.000
    Si4360   Si       0.49489    0.98357    0.44567    1.000
    N4361    N        0.60879    0.96183    0.45899    1.000
    N4362    N        0.51865    0.95183    0.46320    1.000
    Si4363   Si       0.67015    0.00288    0.40955    1.000
    N4364    N        0.62800    0.00009    0.40126    1.000
    Si4365   Si       0.70705    0.96660    0.45972    1.000
    N4366    N        0.67512    0.96445    0.43174    1.000
    N4367    N        0.68479    0.96733    0.49905    1.000
    Si4368   Si       0.57726    0.97895    0.59481    1.000
    N4369    N        0.49448    0.97964    0.53346    1.000
    Si4370   Si       0.60135    0.95744    0.50221    1.000
    N4371    N        0.49518    0.98792    0.61215    1.000
    N4372    N        0.54542    0.99926    0.57334    1.000
    Si4373   Si       0.52184    0.95176    0.50683    1.000
    N4374    N        0.61032    0.00339    0.58594    1.000
    N4375    N        0.61319    0.99657    0.51346    1.000
    N4376    N        0.66810    0.98007    0.55898    1.000
    Si4377   Si       0.67963    0.97535    0.60038    1.000
    Si4378   Si       0.70630    0.98250    0.53454    1.000
    N4379    N        0.71703    0.95796    0.58946    1.000
    Si4380   Si       0.73971    0.98956    0.68337    1.000
    Si4381   Si       0.63475    0.00602    0.54924    1.000
    N4382    N        0.50350    0.99099    0.67997    1.000
    N4383    N        0.56542    0.96216    0.69488    1.000
    N4384    N        0.56186    0.99180    0.63319    1.000
    Si4385   Si       0.53913    0.97236    0.66343    1.000
    Si4386   Si       0.55972    0.97539    0.73684    1.000
    N4387    N        0.52856    0.00771    0.74279    1.000
    N4388    N        0.70282    0.97149    0.69715    1.000
    N4389    N        0.73418    0.00239    0.64260    1.000
    Si4390   Si       0.70371    0.96385    0.74092    1.000
    Si4391   Si       0.64038    0.95048    0.74336    1.000
    N4392    N        0.58239    0.97238    0.81928    1.000
    N4393    N        0.52705    0.99141    0.85600    1.000
    Si4394   Si       0.50927    0.99929    0.81654    1.000
    Si4395   Si       0.55600    0.95916    0.85134    1.000
    N4396    N        0.60160    0.98070    0.75123    1.000
    N4397    N        0.49593    0.96130    0.80630    1.000
    Si4398   Si       0.59200    0.95230    0.78426    1.000
    Si4399   Si       0.60899    0.00473    0.83193    1.000
    N4400    N        0.64399    0.98124    0.84728    1.000
    Si4401   Si       0.68815    0.98571    0.84232    1.000
    N4402    N        0.66921    0.99130    0.75649    1.000
    N4403    N        0.70766    0.95799    0.81634    1.000
    Si4404   Si       0.71725    0.00771    0.91449    1.000
    N4405    N        0.58436    0.95881    0.88471    1.000
    Si4406   Si       0.57742    0.97750    0.92221    1.000
    Si4407   Si       0.53960    0.99262    0.96721    1.000
    N4408    N        0.49992    0.99523    0.98549    1.000
    N4409    N        0.55638    0.95465    0.95473    1.000
    N4410    N        0.61551    0.98599    0.94232    1.000
    Si4411   Si       0.61252    0.99744    0.98335    1.000
    Si4412   Si       0.65572    0.96928    0.94013    1.000
    N4413    N        0.70820    0.98115    0.88112    1.000
    N4414    N        0.68570    0.00136    0.94407    1.000
    N4415    N        0.57148    0.00860    0.98977    1.000
    Si4416   Si       0.84434    0.03500    0.09120    1.000
    N4417    N        0.77780    0.02007    0.00499    1.000
    N4418    N        0.80829    0.02188    0.07061    1.000
    Si4419   Si       0.77484    0.03947    0.09286    1.000
    N4420    N        0.75395    0.06017    0.06270    1.000
    N4421    N        0.84983    0.01476    0.01097    1.000
    N4422    N        0.74558    0.01761    0.11880    1.000
    Si4423   Si       0.74371    0.03061    0.03261    1.000
    N4424    N        0.79356    0.06457    0.12351    1.000
    Si4425   Si       0.88558    0.02663    0.03188    1.000
    N4426    N        0.97108    0.04866    0.01706    1.000
    N4427    N        0.87590    0.01239    0.07277    1.000
    Si4428   Si       0.98024    0.03444    0.10918    1.000
    N4429    N        0.96366    0.01054    0.07689    1.000
    Si4430   Si       0.95679    0.01076    0.03303    1.000
    N4431    N        0.89676    0.06831    0.03536    1.000
    N4432    N        0.83896    0.02107    0.13226    1.000
    Si4433   Si       0.80884    0.04105    0.15638    1.000
    N4434    N        0.78264    0.00800    0.17244    1.000
    N4435    N        0.89682    0.00899    0.16337    1.000
    Si4436   Si       0.88913    0.04621    0.18406    1.000
    N4437    N        0.87522    0.03760    0.22565    1.000
    N4438    N        0.93140    0.05538    0.20242    1.000
    Si4439   Si       0.95752    0.02573    0.22432    1.000
    N4440    N        0.97607    0.04217    0.15388    1.000
    N4441    N        0.91951    0.00710    0.01167    1.000
    Si4442   Si       0.91127    0.06282    0.24224    1.000
    N4443    N        0.82617    0.02778    0.34359    1.000
    Si4444   Si       0.78774    0.01986    0.32511    1.000
    N4445    N        0.77711    0.05608    0.30428    1.000
    N4446    N        0.81722    0.02914    0.25412    1.000
    N4447    N        0.75635    0.01333    0.35242    1.000
    Si4448   Si       0.85919    0.02419    0.26411    1.000
    Si4449   Si       0.86769    0.04598    0.33510    1.000
    N4450    N        0.87165    0.05273    0.29423    1.000
    N4451    N        0.90207    0.03357    0.35863    1.000
    N4452    N        0.93342    0.02952    0.26005    1.000
    N4453    N        0.96519    0.05533    0.36548    1.000
    N4454    N        0.90679    0.04574    0.49513    1.000
    Si4455   Si       0.82089    0.05700    0.37684    1.000
    N4456    N        0.81730    0.04093    0.41694    1.000
    N4457    N        0.83729    0.06258    0.47804    1.000
    Si4458   Si       0.92465    0.05953    0.38540    1.000
    Si4459   Si       0.93923    0.05579    0.46569    1.000
    N4460    N        0.96920    0.02553    0.47483    1.000
    N4461    N        0.92789    0.03864    0.42456    1.000
    Si4462   Si       0.86725    0.03245    0.48005    1.000
    N4463    N        0.74218    0.01245    0.24464    1.000
    N4464    N        0.78189    0.03064    0.51562    1.000
    Si4465   Si       0.76407    0.02299    0.55686    1.000
    N4466    N        0.77616    0.05858    0.58114    1.000
    Si4467   Si       0.81424    0.06142    0.51420    1.000
    Si4468   Si       0.86005    0.02404    0.55065    1.000
    N4469    N        0.83882    0.06372    0.54931    1.000
    N4470    N        0.85077    0.00979    0.51280    1.000
    N4471    N        0.96120    0.04219    0.54821    1.000
    N4472    N        0.98347    0.03572    0.61636    1.000
    Si4473   Si       0.98467    0.02603    0.51529    1.000
    N4474    N        0.90126    0.01579    0.55917    1.000
    Si4475   Si       0.97754    0.06333    0.58188    1.000
    Si4476   Si       0.92767    0.06331    0.52819    1.000
    Si4477   Si       0.84140    0.05701    0.66964    1.000
    N4478    N        0.82584    0.04715    0.63157    1.000
    N4479    N        0.75246    0.02341    0.70596    1.000
    N4480    N        0.86005    0.03160    0.69826    1.000
    Si4481   Si       0.96964    0.04715    0.65580    1.000
    N4482    N        0.92706    0.03822    0.67451    1.000
    Si4483   Si       0.89727    0.06286    0.69617    1.000
    N4484    N        0.75877    0.04918    0.82844    1.000
    N4485    N        0.82112    0.02588    0.81698    1.000
    N4486    N        0.78750    0.05679    0.75960    1.000
    Si4487   Si       0.84703    0.05996    0.82379    1.000
    Si4488   Si       0.78553    0.01589    0.84043    1.000
    N4489    N        0.85857    0.05860    0.86579    1.000
    Si4490   Si       0.76722    0.01968    0.74682    1.000
    Si4491   Si       0.91584    0.04900    0.77401    1.000
    N4492    N        0.88425    0.06195    0.80264    1.000
    Si4493   Si       0.98840    0.06460    0.80024    1.000
    N4494    N        0.75683    0.01039    0.93322    1.000
    N4495    N        0.83595    0.03376    0.93328    1.000
    N4496    N        0.79925    0.02430    0.88180    1.000
    Si4497   Si       0.78985    0.03457    0.92086    1.000
    Si4498   Si       0.84315    0.02609    0.89095    1.000
    N4499    N        0.96202    0.05614    0.89975    1.000
    Si4500   Si       0.95291    0.05582    0.94414    1.000
    N4501    N        0.95047    0.01199    0.94554    1.000
    Si4502   Si       0.81318    0.09910    0.10680    1.000
    N4503    N        0.84620    0.07824    0.08779    1.000
    Si4504   Si       0.75301    0.10299    0.06257    1.000
    N4505    N        0.77525    0.12314    0.09570    1.000
    N4506    N        0.87352    0.08157    0.16356    1.000
    Si4507   Si       0.93353    0.07487    0.01368    1.000
    N4508    N        0.90879    0.10087    0.09370    1.000
    Si4509   Si       0.87766    0.09618    0.06352    1.000
    N4510    N        0.95034    0.10848    0.03587    1.000
    Si4511   Si       0.95070    0.10581    0.08104    1.000
    N4512    N        0.98050    0.07604    0.09743    1.000
    N4513    N        0.76584    0.07537    0.23995    1.000
    Si4514   Si       0.83781    0.10437    0.17665    1.000
    N4515    N        0.75333    0.11176    0.16943    1.000
    Si4516   Si       0.76901    0.08166    0.19605    1.000
    N4517    N        0.82229    0.12528    0.14162    1.000
    N4518    N        0.81192    0.07224    0.18758    1.000
    N4519    N        0.94006    0.10573    0.15345    1.000
    Si4520   Si       0.89999    0.10715    0.13599    1.000
    Si4521   Si       0.96117    0.07717    0.17650    1.000
    N4522    N        0.98603    0.09578    0.20510    1.000
    N4523    N        0.82559    0.09861    0.27489    1.000
    Si4524   Si       0.76155    0.08590    0.33198    1.000
    N4525    N        0.85501    0.07868    0.36057    1.000
    N4526    N        0.78401    0.08104    0.36892    1.000
    N4527    N        0.76293    0.12082    0.30710    1.000
    Si4528   Si       0.79790    0.06602    0.26841    1.000
    Si4529   Si       0.86844    0.09566    0.28313    1.000
    N4530    N        0.96094    0.10718    0.31127    1.000
    Si4531   Si       0.87710    0.11677    0.36104    1.000
    Si4532   Si       0.98155    0.08935    0.34446    1.000
    N4533    N        0.88062    0.12159    0.31624    1.000
    N4534    N        0.89585    0.10213    0.24966    1.000
    Si4535   Si       0.75993    0.09490    0.40318    1.000
    N4536    N        0.78100    0.09613    0.44051    1.000
    Si4537   Si       0.82066    0.07868    0.43937    1.000
    N4538    N        0.84526    0.10831    0.42369    1.000
    Si4539   Si       0.76077    0.10069    0.47964    1.000
    N4540    N        0.98825    0.12287    0.37254    1.000
    N4541    N        0.96170    0.10840    0.43492    1.000
    N4542    N        0.91348    0.10238    0.38644    1.000
    Si4543   Si       0.96961    0.11614    0.47630    1.000
    N4544    N        0.79628    0.10125    0.50938    1.000
    N4545    N        0.85297    0.10075    0.60126    1.000
    Si4546   Si       0.74895    0.08230    0.60625    1.000
    Si4547   Si       0.81571    0.07569    0.59842    1.000
    N4548    N        0.78974    0.10995    0.61643    1.000
    N4549    N        0.98149    0.08686    0.66483    1.000
    Si4550   Si       0.86491    0.09773    0.56059    1.000
    N4551    N        0.96149    0.10228    0.59747    1.000
    N4552    N        0.90619    0.08968    0.55700    1.000
    Si4553   Si       0.87528    0.11487    0.63516    1.000
    N4554    N        0.75181    0.09145    0.71148    1.000
    Si4555   Si       0.79219    0.08519    0.72628    1.000
    Si4556   Si       0.78364    0.10497    0.66000    1.000
    N4557    N        0.81077    0.08256    0.68762    1.000
    N4558    N        0.75301    0.07439    0.64957    1.000
    Si4559   Si       0.97555    0.11888    0.63562    1.000
    N4560    N        0.87657    0.08348    0.66589    1.000
    N4561    N        0.90839    0.07072    0.73623    1.000
    N4562    N        0.95252    0.08533    0.49777    1.000
    N4563    N        0.81630    0.09127    0.81776    1.000
    N4564    N        0.75285    0.10779    0.79077    1.000
    Si4565   Si       0.78054    0.07412    0.79972    1.000
    Si4566   Si       0.91246    0.09141    0.81824    1.000
    N4567    N        0.91471    0.09664    0.86027    1.000
    Si4568   Si       0.90600    0.11217    0.74876    1.000
    N4569    N        0.94571    0.07095    0.79881    1.000
    N4570    N        0.79321    0.07809    0.93418    1.000
    Si4571   Si       0.77477    0.11658    0.93904    1.000
    N4572    N        0.84446    0.08542    0.98387    1.000
    Si4573   Si       0.83708    0.07723    0.94155    1.000
    N4574    N        0.98292    0.10747    0.86950    1.000
    Si4575   Si       0.87385    0.09727    0.87647    1.000
    N4576    N        0.92120    0.07438    0.97027    1.000
    N4577    N        0.94230    0.11614    0.92452    1.000
    Si4578   Si       0.94678    0.09590    0.88628    1.000
    Si4579   Si       0.90511    0.10670    0.94591    1.000
    N4580    N        0.86912    0.09802    0.92198    1.000
    Si4581   Si       0.98190    0.12016    0.94461    1.000
    N4582    N        0.90226    0.12603    0.79270    1.000
    Si4583   Si       0.85660    0.12430    0.99539    1.000
    N4584    N        0.83145    0.15917    0.08723    1.000
    Si4585   Si       0.78980    0.15560    0.06809    1.000
    Si4586   Si       0.84791    0.17539    0.04582    1.000
    N4587    N        0.80730    0.18206    0.03050    1.000
    N4588    N        0.77006    0.13109    0.03506    1.000
    N4589    N        0.86041    0.12953    0.04015    1.000
    N4590    N        0.96783    0.14393    0.09681    1.000
    Si4591   Si       0.98537    0.12931    0.01575    1.000
    Si4592   Si       0.84575    0.16095    0.12686    1.000
    Si4593   Si       0.82723    0.16227    0.23106    1.000
    N4594    N        0.77535    0.17233    0.14969    1.000
    N4595    N        0.84736    0.13500    0.20453    1.000
    Si4596   Si       0.77588    0.13259    0.14028    1.000
    Si4597   Si       0.88416    0.13824    0.22652    1.000
    Si4598   Si       0.91306    0.17533    0.16540    1.000
    Si4599   Si       0.96926    0.13677    0.13916    1.000
    N4600    N        0.91280    0.16546    0.20788    1.000
    N4601    N        0.95796    0.17414    0.15806    1.000
    N4602    N        0.88723    0.14935    0.14212    1.000
    Si4603   Si       0.94527    0.18369    0.23333    1.000
    N4604    N        0.82334    0.15727    0.31777    1.000
    Si4605   Si       0.79998    0.13200    0.29034    1.000
    N4606    N        0.79236    0.15850    0.25727    1.000
    N4607    N        0.86179    0.16161    0.25889    1.000
    Si4608   Si       0.86484    0.16165    0.30216    1.000
    Si4609   Si       0.73684    0.15590    0.30716    1.000
    Si4610   Si       0.97544    0.14476    0.29520    1.000
    N4611    N        0.95478    0.17194    0.32330    1.000
    Si4612   Si       0.97028    0.16085    0.36296    1.000
    N4613    N        0.96647    0.15374    0.25409    1.000
    N4614    N        0.73798    0.13107    0.38468    1.000
    Si4615   Si       0.74792    0.17066    0.37512    1.000
    N4616    N        0.74596    0.14220    0.48538    1.000
    N4617    N        0.79108    0.17849    0.38373    1.000
    Si4618   Si       0.77041    0.17808    0.48668    1.000
    N4619    N        0.84165    0.18331    0.43778    1.000
    Si4620   Si       0.86280    0.14852    0.42324    1.000
    N4621    N        0.95095    0.15483    0.48774    1.000
    Si4622   Si       0.91536    0.17398    0.47200    1.000
    Si4623   Si       0.92988    0.13107    0.41454    1.000
    N4624    N        0.86883    0.15537    0.37973    1.000
    N4625    N        0.90108    0.14674    0.44231    1.000
    N4626    N        0.94451    0.16738    0.39656    1.000
    N4627    N        0.79054    0.15054    0.55442    1.000
    Si4628   Si       0.77427    0.14431    0.59512    1.000
    Si4629   Si       0.81606    0.13940    0.52086    1.000
    N4630    N        0.85592    0.13350    0.53924    1.000
    N4631    N        0.80535    0.17325    0.61669    1.000
    N4632    N        0.74889    0.18305    0.58915    1.000
    N4633    N        0.81298    0.17329    0.49702    1.000
    Si4634   Si       0.95898    0.16961    0.52784    1.000
    N4635    N        0.92467    0.15824    0.54975    1.000
    Si4636   Si       0.88349    0.17144    0.54315    1.000
    N4637    N        0.90680    0.13608    0.61103    1.000
    N4638    N        0.76810    0.14387    0.67200    1.000
    Si4639   Si       0.78452    0.18051    0.65502    1.000
    N4640    N        0.80034    0.12223    0.74709    1.000
    Si4641   Si       0.91731    0.16535    0.64201    1.000
    N4642    N        0.92905    0.13368    0.71694    1.000
    N4643    N        0.95425    0.14938    0.65726    1.000
    N4644    N        0.86756    0.12862    0.73321    1.000
    Si4645   Si       0.96650    0.15096    0.69996    1.000
    N4646    N        0.88172    0.15042    0.66440    1.000
    Si4647   Si       0.89114    0.15145    0.70502    1.000
    N4648    N        0.88343    0.18368    0.50035    1.000
    Si4649   Si       0.92860    0.12221    0.57636    1.000
    N4650    N        0.83773    0.15318    0.79469    1.000
    N4651    N        0.79102    0.15650    0.84825    1.000
    Si4652   Si       0.76298    0.13814    0.76042    1.000
    Si4653   Si       0.83483    0.14884    0.75171    1.000
    Si4654   Si       0.82216    0.13337    0.83074    1.000
    N4655    N        0.77201    0.17713    0.77980    1.000
    N4656    N        0.86103    0.13338    0.85176    1.000
    Si4657   Si       0.87698    0.15561    0.81486    1.000
    N4658    N        0.97468    0.14480    0.97834    1.000
    N4659    N        0.75754    0.14394    0.97322    1.000
    Si4660   Si       0.78178    0.17406    0.88854    1.000
    N4661    N        0.82759    0.14947    0.97707    1.000
    N4662    N        0.79815    0.14500    0.91803    1.000
    Si4663   Si       0.82001    0.17567    0.94209    1.000
    Si4664   Si       0.78978    0.16631    0.99551    1.000
    Si4665   Si       0.90443    0.17513    0.98621    1.000
    N4666    N        0.89523    0.13388    0.97876    1.000
    Si4667   Si       0.76754    0.18579    0.82350    1.000
    Si4668   Si       0.96330    0.18496    0.96985    1.000
    Si4669   Si       0.79986    0.21937    0.05658    1.000
    N4670    N        0.84758    0.22164    0.05851    1.000
    N4671    N        0.76687    0.19336    0.07449    1.000
    Si4672   Si       0.87825    0.23037    0.02730    1.000
    N4673    N        0.97147    0.21426    0.06122    1.000
    Si4674   Si       0.94619    0.22590    0.02951    1.000
    N4675    N        0.93864    0.19373    0.00447    1.000
    N4676    N        0.87482    0.18925    0.01412    1.000
    N4677    N        0.80561    0.19507    0.20944    1.000
    N4678    N        0.77505    0.23780    0.16003    1.000
    N4679    N        0.83690    0.20154    0.13895    1.000
    Si4680   Si       0.80031    0.20060    0.16719    1.000
    Si4681   Si       0.77035    0.19302    0.24346    1.000
    N4682    N        0.96155    0.21550    0.20850    1.000
    N4683    N        0.90422    0.21834    0.15383    1.000
    Si4684   Si       0.86553    0.23426    0.14607    1.000
    N4685    N        0.98018    0.24272    0.15258    1.000
    Si4686   Si       0.98477    0.20483    0.17302    1.000
    Si4687   Si       0.73892    0.23002    0.18171    1.000
    N4688    N        0.83355    0.21701    0.34752    1.000
    N4689    N        0.77306    0.23076    0.26973    1.000
    Si4690   Si       0.74929    0.22336    0.30450    1.000
    N4691    N        0.75640    0.18869    0.33428    1.000
    Si4692   Si       0.87170    0.19710    0.36095    1.000
    Si4693   Si       0.93066    0.20658    0.30781    1.000
    N4694    N        0.93127    0.21296    0.26551    1.000
    N4695    N        0.88927    0.19421    0.31818    1.000
    N4696    N        0.94844    0.24051    0.32900    1.000
    N4697    N        0.76803    0.19135    0.44502    1.000
    Si4698   Si       0.80324    0.19739    0.42083    1.000
    Si4699   Si       0.84734    0.19862    0.48040    1.000
    N4700    N        0.80102    0.24012    0.41814    1.000
    N4701    N        0.89913    0.22348    0.38096    1.000
    N4702    N        0.92413    0.21217    0.45301    1.000
    Si4703   Si       0.92965    0.20906    0.40945    1.000
    N4704    N        0.96330    0.23519    0.40341    1.000
    N4705    N        0.84705    0.24412    0.47402    1.000
    Si4706   Si       0.80139    0.18717    0.34283    1.000
    N4707    N        0.80609    0.22284    0.56620    1.000
    N4708    N        0.75531    0.20290    0.52032    1.000
    Si4709   Si       0.82851    0.20232    0.59587    1.000
    Si4710   Si       0.77540    0.19384    0.55784    1.000
    N4711    N        0.98320    0.20576    0.52430    1.000
    N4712    N        0.86933    0.19404    0.57747    1.000
    Si4713   Si       0.88647    0.22446    0.60464    1.000
    Si4714   Si       0.93480    0.21277    0.72441    1.000
    N4715    N        0.84760    0.22860    0.62486    1.000
    N4716    N        0.74879    0.20605    0.65254    1.000
    N4717    N        0.80378    0.21261    0.67720    1.000
    Si4718   Si       0.86375    0.21956    0.72598    1.000
    Si4719   Si       0.76857    0.23868    0.67876    1.000
    N4720    N        0.83266    0.18981    0.74215    1.000
    N4721    N        0.97252    0.19038    0.71711    1.000
    N4722    N        0.89626    0.19269    0.71769    1.000
    N4723    N        0.91051    0.20861    0.63927    1.000
    Si4724   Si       0.74269    0.24277    0.53155    1.000
    Si4725   Si       0.83075    0.24361    0.66196    1.000
    Si4726   Si       0.90157    0.24128    0.66653    1.000
    N4727    N        0.80308    0.21705    0.81613    1.000
    Si4728   Si       0.80482    0.20485    0.77436    1.000
    N4729    N        0.75067    0.21103    0.85513    1.000
    N4730    N        0.85120    0.23203    0.86662    1.000
    N4731    N        0.86517    0.24251    0.76252    1.000
    N4732    N        0.92477    0.18439    0.94602    1.000
    Si4733   Si       0.88819    0.22110    0.84988    1.000
    N4734    N        0.96661    0.21440    0.82406    1.000
    N4735    N        0.88791    0.19610    0.81494    1.000
    N4736    N        0.93413    0.22478    0.76514    1.000
    Si4737   Si       0.89760    0.23127    0.78879    1.000
    Si4738   Si       0.95431    0.22665    0.86487    1.000
    Si4739   Si       0.97072    0.23676    0.78609    1.000
    N4740    N        0.85876    0.18996    0.92617    1.000
    N4741    N        0.79351    0.20231    0.96716    1.000
    N4742    N        0.79971    0.20775    0.90813    1.000
    Si4743   Si       0.84174    0.22879    0.91055    1.000
    Si4744   Si       0.78029    0.23615    0.94071    1.000
    Si4745   Si       0.89816    0.20463    0.91810    1.000
    N4746    N        0.91783    0.20913    0.87951    1.000
    N4747    N        0.88353    0.24481    0.92703    1.000
    N4748    N        0.84665    0.28685    0.05096    1.000
    Si4749   Si       0.83003    0.27622    0.01213    1.000
    Si4750   Si       0.84015    0.25762    0.08233    1.000
    Si4751   Si       0.75784    0.26761    0.01479    1.000
    N4752    N        0.79588    0.25278    0.02721    1.000
    N4753    N        0.80080    0.24632    0.09144    1.000
    N4754    N        0.93473    0.27120    0.11407    1.000
    N4755    N        0.87042    0.25919    0.10985    1.000
    Si4756   Si       0.90411    0.27261    0.08365    1.000
    N4757    N        0.97188    0.25400    0.00484    1.000
    N4758    N        0.91308    0.24586    0.04735    1.000
    Si4759   Si       0.77471    0.25922    0.12347    1.000
    N4760    N        0.79637    0.27615    0.21864    1.000
    N4761    N        0.85082    0.26353    0.17820    1.000
    N4762    N        0.79667    0.29306    0.13857    1.000
    Si4763   Si       0.81446    0.28521    0.17898    1.000
    Si4764   Si       0.75541    0.29525    0.22613    1.000
    Si4765   Si       0.88270    0.27906    0.20271    1.000
    N4766    N        0.92706    0.27205    0.18871    1.000
    Si4767   Si       0.93633    0.24757    0.14997    1.000
    N4768    N        0.89347    0.26210    0.24124    1.000
    N4769    N        0.75085    0.30460    0.03380    1.000
    Si4770   Si       0.93846    0.24933    0.22939    1.000
    N4771    N        0.82400    0.28501    0.35065    1.000
    N4772    N        0.76056    0.25994    0.33278    1.000
    Si4773   Si       0.83987    0.25362    0.32445    1.000
    N4774    N        0.83427    0.25884    0.28150    1.000
    Si4775   Si       0.79742    0.26465    0.26029    1.000
    Si4776   Si       0.78231    0.29435    0.34919    1.000
    Si4777   Si       0.87519    0.27328    0.27716    1.000
    N4778    N        0.88427    0.26356    0.32185    1.000
    Si4779   Si       0.91349    0.25529    0.35284    1.000
    Si4780   Si       0.95182    0.27673    0.40909    1.000
    N4781    N        0.97341    0.26273    0.48180    1.000
    N4782    N        0.96628    0.27720    0.24375    1.000
    N4783    N        0.85691    0.28676    0.41351    1.000
    Si4784   Si       0.82923    0.26721    0.44077    1.000
    Si4785   Si       0.76798    0.26997    0.42432    1.000
    N4786    N        0.79235    0.28773    0.45623    1.000
    N4787    N        0.76304    0.29562    0.38885    1.000
    Si4788   Si       0.77140    0.29783    0.49185    1.000
    N4789    N        0.92307    0.27927    0.43942    1.000
    N4790    N        0.98803    0.29985    0.42297    1.000
    N4791    N        0.92758    0.28939    0.37532    1.000
    Si4792   Si       0.93400    0.25058    0.47021    1.000
    N4793    N        0.77756    0.26713    0.52212    1.000
    Si4794   Si       0.81051    0.26427    0.55172    1.000
    N4795    N        0.84636    0.28381    0.53449    1.000
    N4796    N        0.79651    0.28737    0.58430    1.000
    Si4797   Si       0.75327    0.28676    0.58588    1.000
    N4798    N        0.74158    0.24547    0.57931    1.000
    Si4799   Si       0.93672    0.28665    0.71431    1.000
    N4800    N        0.89807    0.25831    0.58213    1.000
    N4801    N        0.90758    0.26128    0.50439    1.000
    N4802    N        0.96072    0.26236    0.55341    1.000
    Si4803   Si       0.91905    0.27139    0.54550    1.000
    Si4804   Si       0.98235    0.28734    0.58088    1.000
    Si4805   Si       0.91199    0.29906    0.60383    1.000
    Si4806   Si       0.98649    0.24782    0.52279    1.000
    N4807    N        0.95404    0.30017    0.61281    1.000
    Si4808   Si       0.86700    0.27476    0.49690    1.000
    N4809    N        0.79354    0.27261    0.66677    1.000
    N4810    N        0.74404    0.25171    0.71160    1.000
    N4811    N        0.89994    0.29581    0.73201    1.000
    N4812    N        0.86183    0.24924    0.69177    1.000
    N4813    N        0.93333    0.24803    0.69952    1.000
    N4814    N        0.89930    0.27876    0.64343    1.000
    N4815    N        0.97262    0.29568    0.73589    1.000
    Si4816   Si       0.86366    0.28926    0.71130    1.000
    N4817    N        0.83996    0.30380    0.74507    1.000
    N4818    N        0.83680    0.27593    0.81522    1.000
    Si4819   Si       0.83107    0.27027    0.77241    1.000
    N4820    N        0.78655    0.26996    0.86597    1.000
    Si4821   Si       0.81743    0.24658    0.84209    1.000
    N4822    N        0.79775    0.24739    0.75947    1.000
    Si4823   Si       0.76133    0.26629    0.74972    1.000
    Si4824   Si       0.87225    0.29247    0.83272    1.000
    N4825    N        0.95525    0.27874    0.79822    1.000
    Si4826   Si       0.93580    0.28877    0.83730    1.000
    N4827    N        0.90227    0.25635    0.82639    1.000
    N4828    N        0.95789    0.26865    0.86895    1.000
    Si4829   Si       0.74757    0.25139    0.87126    1.000
    N4830    N        0.81792    0.26002    0.93397    1.000
    N4831    N        0.75839    0.26313    0.97068    1.000
    N4832    N        0.86302    0.25471    0.99328    1.000
    N4833    N        0.74275    0.24563    0.91417    1.000
    Si4834   Si       0.88045    0.27284    0.95809    1.000
    N4835    N        0.91550    0.29566    0.97597    1.000
    Si4836   Si       0.95774    0.29240    0.98993    1.000
    Si4837   Si       0.82231    0.30110    0.94363    1.000
    N4838    N        0.83225    0.33875    0.09499    1.000
    Si4839   Si       0.74574    0.34620    0.02664    1.000
    Si4840   Si       0.86192    0.32462    0.06693    1.000
    N4841    N        0.85029    0.35963    0.03835    1.000
    Si4842   Si       0.92972    0.31513    0.18406    1.000
    Si4843   Si       0.83865    0.35149    0.99576    1.000
    N4844    N        0.90252    0.31272    0.07144    1.000
    N4845    N        0.96460    0.31801    0.02634    1.000
    Si4846   Si       0.93615    0.33429    0.05488    1.000
    N4847    N        0.96777    0.33528    0.08436    1.000
    Si4848   Si       0.95768    0.30914    0.11973    1.000
    N4849    N        0.76014    0.33280    0.20541    1.000
    Si4850   Si       0.81231    0.33318    0.13315    1.000
    N4851    N        0.82328    0.32977    0.17964    1.000
    Si4852   Si       0.86110    0.35067    0.18764    1.000
    Si4853   Si       0.78792    0.35701    0.18389    1.000
    N4854    N        0.89027    0.32175    0.20100    1.000
    N4855    N        0.96544    0.33541    0.19794    1.000
    N4856    N        0.92788    0.32955    0.14357    1.000
    Si4857   Si       0.77124    0.34072    0.28909    1.000
    N4858    N        0.77875    0.33277    0.33161    1.000
    N4859    N        0.77022    0.30406    0.26780    1.000
    N4860    N        0.87886    0.33470    0.35619    1.000
    N4861    N        0.87488    0.31709    0.27701    1.000
    Si4862   Si       0.88587    0.33699    0.31390    1.000
    N4863    N        0.93063    0.33960    0.31667    1.000
    Si4864   Si       0.97417    0.33505    0.32457    1.000
    Si4865   Si       0.88263    0.35614    0.25603    1.000
    N4866    N        0.96751    0.33660    0.36705    1.000
    Si4867   Si       0.92326    0.33223    0.37293    1.000
    Si4868   Si       0.84566    0.30856    0.37680    1.000
    N4869    N        0.81980    0.34192    0.38732    1.000
    Si4870   Si       0.85784    0.35201    0.48627    1.000
    N4871    N        0.75288    0.35824    0.44928    1.000
    N4872    N        0.90642    0.34150    0.41393    1.000
    N4873    N        0.86844    0.31216    0.47442    1.000
    Si4874   Si       0.88954    0.30729    0.43488    1.000
    N4875    N        0.78156    0.33495    0.51244    1.000
    Si4876   Si       0.80969    0.32510    0.60290    1.000
    N4877    N        0.85111    0.32790    0.59334    1.000
    Si4878   Si       0.75739    0.34336    0.54873    1.000
    N4879    N        0.78498    0.35418    0.58297    1.000
    N4880    N        0.86401    0.35706    0.52918    1.000
    Si4881   Si       0.86619    0.31894    0.55212    1.000
    N4882    N        0.91307    0.31380    0.55926    1.000
    Si4883   Si       0.94787    0.34262    0.55572    1.000
    N4884    N        0.98678    0.32016    0.55311    1.000
    Si4885   Si       0.83465    0.34742    0.74226    1.000
    N4886    N        0.74585    0.34778    0.67977    1.000
    Si4887   Si       0.83197    0.35335    0.67217    1.000
    N4888    N        0.80355    0.33459    0.64579    1.000
    Si4889   Si       0.76883    0.31111    0.66042    1.000
    N4890    N        0.86262    0.32258    0.68315    1.000
    N4891    N        0.93800    0.31520    0.68221    1.000
    Si4892   Si       0.97096    0.32364    0.64788    1.000
    Si4893   Si       0.90060    0.31815    0.66115    1.000
    N4894    N        0.90565    0.34299    0.62358    1.000
    Si4895   Si       0.87009    0.36246    0.61040    1.000
    N4896    N        0.81005    0.36422    0.70922    1.000
    N4897    N        0.77351    0.30814    0.74579    1.000
    Si4898   Si       0.77096    0.34426    0.76902    1.000
    N4899    N        0.74771    0.32892    0.80332    1.000
    N4900    N        0.77569    0.34345    0.86575    1.000
    N4901    N        0.81153    0.35544    0.77778    1.000
    N4902    N        0.84182    0.31160    0.86724    1.000
    N4903    N        0.98192    0.30769    0.95792    1.000
    Si4904   Si       0.89900    0.33073    0.75841    1.000
    Si4905   Si       0.96711    0.31509    0.77556    1.000
    N4906    N        0.94994    0.33460    0.82764    1.000
    N4907    N        0.93916    0.34746    0.76031    1.000
    Si4908   Si       0.90666    0.34523    0.82859    1.000
    N4909    N        0.89020    0.31702    0.79963    1.000
    Si4910   Si       0.97426    0.35688    0.85677    1.000
    N4911    N        0.90286    0.31024    0.86014    1.000
    Si4912   Si       0.79985    0.31028    0.87763    1.000
    N4913    N        0.79723    0.32590    0.92066    1.000
    N4914    N        0.82405    0.31182    0.98728    1.000
    Si4915   Si       0.96857    0.33848    0.92893    1.000
    N4916    N        0.92584    0.34311    0.92669    1.000
    Si4917   Si       0.87479    0.32287    0.89286    1.000
    N4918    N        0.98180    0.32836    0.88908    1.000
    Si4919   Si       0.89775    0.33070    0.95621    1.000
    N4920    N        0.86528    0.30974    0.93467    1.000
    Si4921   Si       0.75189    0.35896    0.83406    1.000
    N4922    N        0.87323    0.36424    0.75187    1.000
    Si4923   Si       0.77411    0.36093    0.90580    1.000
    N4924    N        0.87404    0.36313    0.97277    1.000
    N4925    N        0.81262    0.40838    0.07789    1.000
    Si4926   Si       0.77163    0.40885    0.06259    1.000
    Si4927   Si       0.81717    0.36791    0.06489    1.000
    N4928    N        0.74649    0.40941    0.09655    1.000
    N4929    N        0.77850    0.36687    0.04465    1.000
    N4930    N        0.92350    0.39095    0.17973    1.000
    Si4931   Si       0.97329    0.37801    0.09559    1.000
    Si4932   Si       0.88210    0.39194    0.03611    1.000
    N4933    N        0.93347    0.38953    0.11049    1.000
    N4934    N        0.91723    0.37129    0.04413    1.000
    N4935    N        0.86976    0.36664    0.14897    1.000
    Si4936   Si       0.82122    0.38887    0.23964    1.000
    Si4937   Si       0.74570    0.38004    0.12688    1.000
    N4938    N        0.79546    0.39217    0.20363    1.000
    N4939    N        0.85739    0.37002    0.22530    1.000
    N4940    N        0.78068    0.36072    0.13855    1.000
    Si4941   Si       0.94573    0.37348    0.21265    1.000
    Si4942   Si       0.91228    0.36954    0.14282    1.000
    N4943    N        0.98271    0.39285    0.22903    1.000
    N4944    N        0.82618    0.38369    0.34354    1.000
    Si4945   Si       0.80186    0.39683    0.30976    1.000
    N4946    N        0.76755    0.40159    0.33811    1.000
    N4947    N        0.80013    0.37194    0.27595    1.000
    Si4948   Si       0.85883    0.37543    0.36900    1.000
    Si4949   Si       0.78876    0.36845    0.37021    1.000
    N4950    N        0.87771    0.37584    0.29548    1.000
    Si4951   Si       0.94261    0.37207    0.28742    1.000
    N4952    N        0.88607    0.40845    0.35426    1.000
    N4953    N        0.93312    0.41477    0.29865    1.000
    Si4954   Si       0.89137    0.41332    0.31131    1.000
    N4955    N        0.98686    0.37022    0.29729    1.000
    N4956    N        0.92455    0.36555    0.24920    1.000
    Si4957   Si       0.82566    0.39418    0.43229    1.000
    N4958    N        0.78772    0.39779    0.40970    1.000
    Si4959   Si       0.74480    0.38834    0.41641    1.000
    N4960    N        0.82282    0.36744    0.46563    1.000
    Si4961   Si       0.78147    0.36560    0.48144    1.000
    N4962    N        0.86239    0.38694    0.41286    1.000
    N4963    N        0.74285    0.36253    0.38091    1.000
    N4964    N        0.77253    0.40541    0.49620    1.000
    N4965    N        0.94727    0.37603    0.45069    1.000
    N4966    N        0.88998    0.37896    0.47143    1.000
    Si4967   Si       0.90441    0.38212    0.42868    1.000
    Si4968   Si       0.92751    0.38623    0.48906    1.000
    Si4969   Si       0.98826    0.36586    0.46068    1.000
    Si4970   Si       0.77153    0.39488    0.59149    1.000
    Si4971   Si       0.74775    0.41653    0.53288    1.000
    N4972    N        0.80096    0.41367    0.61820    1.000
    N4973    N        0.97022    0.36663    0.65448    1.000
    N4974    N        0.86690    0.39589    0.58495    1.000
    Si4975   Si       0.86955    0.39874    0.54167    1.000
    N4976    N        0.94851    0.37372    0.52394    1.000
    N4977    N        0.96335    0.36877    0.58741    1.000
    Si4978   Si       0.98530    0.39746    0.52783    1.000
    N4979    N        0.92322    0.41212    0.61816    1.000
    N4980    N        0.96116    0.40688    0.71415    1.000
    N4981    N        0.85340    0.38005    0.64676    1.000
    Si4982   Si       0.76877    0.37608    0.70689    1.000
    N4983    N        0.76994    0.41696    0.68658    1.000
    N4984    N        0.74738    0.37180    0.74483    1.000
    Si4985   Si       0.94002    0.37312    0.62289    1.000
    N4986    N        0.83599    0.42018    0.52855    1.000
    N4987    N        0.77097    0.39207    0.80912    1.000
    Si4988   Si       0.81458    0.39049    0.80982    1.000
    N4989    N        0.82594    0.40331    0.85097    1.000
    N4990    N        0.84217    0.41841    0.78928    1.000
    Si4991   Si       0.88184    0.40567    0.96370    1.000
    Si4992   Si       0.86700    0.39644    0.85829    1.000
    N4993    N        0.88516    0.38131    0.82243    1.000
    Si4994   Si       0.87886    0.39641    0.78069    1.000
    N4995    N        0.91739    0.41209    0.77222    1.000
    Si4996   Si       0.94938    0.38910    0.75203    1.000
    N4997    N        0.98813    0.39425    0.77286    1.000
    N4998    N        0.98294    0.37825    0.94283    1.000
    N4999    N        0.80984    0.38040    0.98079    1.000
    N5000    N        0.79130    0.39956    0.90856    1.000
    Si5001   Si       0.80950    0.40967    0.94704    1.000
    N5002    N        0.74212    0.36539    0.98652    1.000
    Si5003   Si       0.77242    0.39802    0.99472    1.000
    Si5004   Si       0.96070    0.41472    0.94889    1.000
    N5005    N        0.88160    0.36789    0.88725    1.000
    Si5006   Si       0.91875    0.38190    0.90334    1.000
    N5007    N        0.94938    0.38704    0.87386    1.000
    N5008    N        0.91746    0.40675    0.93811    1.000
    Si5009   Si       0.84004    0.44129    0.07471    1.000
    N5010    N        0.82574    0.46826    0.04454    1.000
    N5011    N        0.83884    0.46157    0.11176    1.000
    N5012    N        0.75488    0.42570    0.02535    1.000
    Si5013   Si       0.98125    0.44449    0.06933    1.000
    Si5014   Si       0.92881    0.43910    0.01568    1.000
    N5015    N        0.93900    0.44614    0.06087    1.000
    Si5016   Si       0.91540    0.42450    0.09333    1.000
    N5017    N        0.89081    0.42091    0.00462    1.000
    N5018    N        0.75131    0.44769    0.20886    1.000
    N5019    N        0.82040    0.45683    0.18062    1.000
    Si5020   Si       0.79339    0.43490    0.20844    1.000
    Si5021   Si       0.85316    0.45829    0.20912    1.000
    N5022    N        0.82900    0.43483    0.23957    1.000
    N5023    N        0.74717    0.46226    0.13868    1.000
    N5024    N        0.96344    0.44557    0.17674    1.000
    Si5025   Si       0.97818    0.46995    0.14325    1.000
    Si5026   Si       0.87983    0.47614    0.11942    1.000
    Si5027   Si       0.98822    0.43130    0.21120    1.000
    Si5028   Si       0.92106    0.43447    0.17130    1.000
    N5029    N        0.89692    0.45812    0.19837    1.000
    N5030    N        0.90370    0.44231    0.13129    1.000
    N5031    N        0.87842    0.42015    0.07151    1.000
    N5032    N        0.97649    0.45566    0.24513    1.000
    Si5033   Si       0.83423    0.45919    0.27833    1.000
    Si5034   Si       0.77406    0.44448    0.33593    1.000
    N5035    N        0.80338    0.43988    0.30268    1.000
    N5036    N        0.79802    0.46204    0.36532    1.000
    N5037    N        0.87265    0.45309    0.29802    1.000
    Si5038   Si       0.96346    0.44364    0.28572    1.000
    N5039    N        0.91491    0.46761    0.35664    1.000
    N5040    N        0.93580    0.47834    0.28644    1.000
    N5041    N        0.91308    0.42424    0.41734    1.000
    N5042    N        0.82956    0.43238    0.45269    1.000
    Si5043   Si       0.85375    0.46990    0.44205    1.000
    N5044    N        0.85888    0.46933    0.39786    1.000
    Si5045   Si       0.81047    0.42626    0.49024    1.000
    Si5046   Si       0.92655    0.45082    0.45184    1.000
    N5047    N        0.93353    0.42950    0.48787    1.000
    Si5048   Si       0.89209    0.44203    0.38440    1.000
    Si5049   Si       0.81107    0.45033    0.54787    1.000
    N5050    N        0.77198    0.43150    0.56576    1.000
    N5051    N        0.79725    0.46638    0.50988    1.000
    Si5052   Si       0.77222    0.46474    0.59420    1.000
    N5053    N        0.86415    0.45345    0.61430    1.000
    N5054    N        0.89730    0.43461    0.70827    1.000
    N5055    N        0.92444    0.46780    0.59139    1.000
    N5056    N        0.97492    0.43695    0.54060    1.000
    Si5057   Si       0.93614    0.44895    0.52719    1.000
    Si5058   Si       0.89497    0.43182    0.59029    1.000
    N5059    N        0.90325    0.42749    0.54669    1.000
    Si5060   Si       0.95110    0.44581    0.61993    1.000
    N5061    N        0.75935    0.46485    0.63587    1.000
    Si5062   Si       0.79894    0.44514    0.70177    1.000
    N5063    N        0.83218    0.43894    0.67448    1.000
    N5064    N        0.82694    0.45391    0.73412    1.000
    Si5065   Si       0.85938    0.45383    0.70530    1.000
    Si5066   Si       0.76555    0.42199    0.64518    1.000
    Si5067   Si       0.84129    0.42133    0.63573    1.000
    Si5068   Si       0.94004    0.44067    0.69981    1.000
    N5069    N        0.94891    0.45568    0.66172    1.000
    N5070    N        0.78049    0.45687    0.78665    1.000
    Si5071   Si       0.82293    0.45527    0.77722    1.000
    N5072    N        0.76671    0.44256    0.85480    1.000
    Si5073   Si       0.75634    0.43146    0.81481    1.000
    N5074    N        0.96380    0.46275    0.78177    1.000
    Si5075   Si       0.92087    0.45365    0.78308    1.000
    N5076    N        0.91277    0.46522    0.82416    1.000
    N5077    N        0.97865    0.43869    0.83938    1.000
    Si5078   Si       0.89855    0.47458    0.86796    1.000
    Si5079   Si       0.80089    0.42779    0.87833    1.000
    N5080    N        0.78047    0.43415    0.96776    1.000
    N5081    N        0.81807    0.46327    0.89628    1.000
    Si5082   Si       0.76719    0.47359    0.97537    1.000
    N5083    N        0.84948    0.42350    0.94150    1.000
    N5084    N        0.97347    0.44087    0.91769    1.000
    N5085    N        0.96371    0.42897    0.99124    1.000
    Si5086   Si       0.85835    0.44894    0.90837    1.000
    N5087    N        0.87998    0.43532    0.87523    1.000
    Si5088   Si       0.95625    0.47636    0.83503    1.000
    Si5089   Si       0.97842    0.42127    0.87773    1.000
    Si5090   Si       0.80925    0.50574    0.03541    1.000
    N5091    N        0.78679    0.51898    0.06996    1.000
    N5092    N        0.83898    0.53047    0.01354    1.000
    Si5093   Si       0.74355    0.51530    0.07331    1.000
    Si5094   Si       0.73936    0.52509    0.00032    1.000
    N5095    N        0.89337    0.49405    0.08236    1.000
    N5096    N        0.95154    0.51841    0.07185    1.000
    Si5097   Si       0.92584    0.48842    0.05583    1.000
    Si5098   Si       0.94646    0.53178    0.11194    1.000
    N5099    N        0.92509    0.48240    0.01181    1.000
    Si5100   Si       0.88411    0.53684    0.08147    1.000
    N5101    N        0.79262    0.51074    0.13872    1.000
    Si5102   Si       0.74956    0.50565    0.14422    1.000
    N5103    N        0.85605    0.49964    0.22317    1.000
    Si5104   Si       0.82289    0.48219    0.14564    1.000
    Si5105   Si       0.83139    0.53198    0.24301    1.000
    N5106    N        0.94683    0.49906    0.13932    1.000
    N5107    N        0.86333    0.50385    0.15007    1.000
    N5108    N        0.92613    0.51698    0.22701    1.000
    Si5109   Si       0.89386    0.50503    0.20182    1.000
    N5110    N        0.78280    0.50954    0.99973    1.000
    N5111    N        0.82394    0.50338    0.27993    1.000
    Si5112   Si       0.77879    0.51551    0.28338    1.000
    N5113    N        0.76748    0.52704    0.32315    1.000
    Si5114   Si       0.84810    0.53000    0.30656    1.000
    N5115    N        0.83316    0.52428    0.34631    1.000
    N5116    N        0.75835    0.48397    0.26482    1.000
    Si5117   Si       0.95308    0.49283    0.25040    1.000
    N5118    N        0.95128    0.52368    0.33193    1.000
    N5119    N        0.88912    0.51975    0.31346    1.000
    N5120    N        0.97489    0.52886    0.26371    1.000
    Si5121   Si       0.94706    0.49662    0.36760    1.000
    Si5122   Si       0.90431    0.47843    0.31496    1.000
    Si5123   Si       0.82576    0.49187    0.37684    1.000
    Si5124   Si       0.83958    0.52415    0.48549    1.000
    N5125    N        0.75831    0.49964    0.45258    1.000
    N5126    N        0.79691    0.52224    0.39363    1.000
    N5127    N        0.82488    0.50068    0.45217    1.000
    Si5128   Si       0.79031    0.52413    0.43510    1.000
    Si5129   Si       0.77591    0.49996    0.49442    1.000
    N5130    N        0.93142    0.52424    0.39639    1.000
    Si5131   Si       0.90608    0.50541    0.49107    1.000
    Si5132   Si       0.94929    0.52286    0.43623    1.000
    N5133    N        0.95718    0.47847    0.44033    1.000
    N5134    N        0.91660    0.53629    0.46134    1.000
    N5135    N        0.88953    0.47616    0.46323    1.000
    N5136    N        0.98344    0.47413    0.37626    1.000
    Si5137   Si       0.84547    0.49201    0.60797    1.000
    N5138    N        0.80279    0.53224    0.50594    1.000
    N5139    N        0.74069    0.49380    0.58183    1.000
    N5140    N        0.81249    0.47770    0.58222    1.000
    N5141    N        0.87172    0.52045    0.51573    1.000
    Si5142   Si       0.91345    0.50770    0.60162    1.000
    N5143    N        0.87263    0.52008    0.58846    1.000
    N5144    N        0.93535    0.48981    0.51774    1.000
    Si5145   Si       0.96228    0.51696    0.54115    1.000
    N5146    N        0.94249    0.53158    0.57798    1.000
    N5147    N        0.76631    0.53472    0.63216    1.000
    Si5148   Si       0.78424    0.49929    0.65333    1.000
    N5149    N        0.82760    0.50470    0.64667    1.000
    Si5150   Si       0.78004    0.51937    0.72029    1.000
    Si5151   Si       0.85000    0.52535    0.67899    1.000
    N5152    N        0.78235    0.48641    0.69364    1.000
    N5153    N        0.94808    0.48428    0.71499    1.000
    N5154    N        0.87240    0.49576    0.70304    1.000
    Si5155   Si       0.90936    0.50421    0.72803    1.000
    N5156    N        0.92593    0.51647    0.64299    1.000
    Si5157   Si       0.95528    0.49672    0.67200    1.000
    N5158    N        0.78281    0.51991    0.76258    1.000
    Si5159   Si       0.75376    0.49070    0.78061    1.000
    N5160    N        0.83977    0.49256    0.79270    1.000
    Si5161   Si       0.81825    0.53126    0.78773    1.000
    Si5162   Si       0.74798    0.48152    0.85727    1.000
    N5163    N        0.87163    0.50680    0.85120    1.000
    Si5164   Si       0.88214    0.49755    0.80644    1.000
    N5165    N        0.89977    0.48600    0.76550    1.000
    Si5166   Si       0.87680    0.51830    0.93317    1.000
    N5167    N        0.73728    0.50079    0.81907    1.000
    N5168    N        0.77223    0.51018    0.87647    1.000
    Si5169   Si       0.80441    0.50183    0.91142    1.000
    N5170    N        0.77018    0.49479    0.93781    1.000
    N5171    N        0.83447    0.51116    0.94426    1.000
    Si5172   Si       0.81408    0.52934    0.97724    1.000
    Si5173   Si       0.73914    0.51137    0.91170    1.000
    Si5174   Si       0.94043    0.51910    0.90369    1.000
    N5175    N        0.88872    0.48045    0.91328    1.000
    N5176    N        0.89465    0.52630    0.97269    1.000
    N5177    N        0.95676    0.50267    0.94246    1.000
    N5178    N        0.94089    0.48918    0.87326    1.000
    Si5179   Si       0.93588    0.51113    0.98052    1.000
    Si5180   Si       0.98131    0.48069    0.74656    1.000
    N5181    N        0.79186    0.58038    0.10750    1.000
    Si5182   Si       0.80297    0.53651    0.10587    1.000
    N5183    N        0.84647    0.53698    0.10011    1.000
    N5184    N        0.89614    0.55538    0.04530    1.000
    Si5185   Si       0.96828    0.55130    0.04673    1.000
    Si5186   Si       0.87605    0.54915    0.00618    1.000
    N5187    N        0.90754    0.54998    0.11610    1.000
    N5188    N        0.95242    0.59098    0.04835    1.000
    Si5189   Si       0.91227    0.59339    0.03401    1.000
    N5190    N        0.96213    0.53853    0.00486    1.000
    N5191    N        0.82895    0.56161    0.20973    1.000
    N5192    N        0.76540    0.56991    0.18068    1.000
    Si5193   Si       0.78908    0.57464    0.21655    1.000
    N5194    N        0.85336    0.58559    0.15251    1.000
    Si5195   Si       0.77427    0.59305    0.14568    1.000
    N5196    N        0.89106    0.54525    0.18274    1.000
    Si5197   Si       0.87232    0.54660    0.14322    1.000
    Si5198   Si       0.94213    0.55515    0.24159    1.000
    N5199    N        0.95420    0.59061    0.21765    1.000
    N5200    N        0.98069    0.55642    0.12419    1.000
    Si5201   Si       0.86442    0.57763    0.19438    1.000
    N5202    N        0.85416    0.55743    0.27127    1.000
    N5203    N        0.78197    0.58518    0.35188    1.000
    Si5204   Si       0.79364    0.54318    0.35497    1.000
    N5205    N        0.78566    0.54713    0.25166    1.000
    N5206    N        0.97564    0.58038    0.32423    1.000
    N5207    N        0.90948    0.57807    0.34375    1.000
    N5208    N        0.92092    0.56972    0.27693    1.000
    Si5209   Si       0.92023    0.54917    0.31518    1.000
    Si5210   Si       0.88428    0.59020    0.26547    1.000
    Si5211   Si       0.98571    0.53970    0.30689    1.000
    Si5212   Si       0.82121    0.58893    0.46134    1.000
    N5213    N        0.78854    0.56668    0.44394    1.000
    N5214    N        0.85289    0.55852    0.46330    1.000
    Si5215   Si       0.74644    0.57730    0.44018    1.000
    N5216    N        0.88476    0.57671    0.40721    1.000
    N5217    N        0.98168    0.55215    0.44096    1.000
    Si5218   Si       0.89291    0.56888    0.45094    1.000
    N5219    N        0.95350    0.59023    0.39149    1.000
    Si5220   Si       0.91854    0.56355    0.38541    1.000
    N5221    N        0.83262    0.56798    0.56172    1.000
    Si5222   Si       0.80113    0.56924    0.52993    1.000
    N5223    N        0.75851    0.57507    0.53379    1.000
    Si5224   Si       0.82040    0.58967    0.59806    1.000
    N5225    N        0.77948    0.59361    0.60251    1.000
    N5226    N        0.95145    0.57203    0.67967    1.000
    Si5227   Si       0.87143    0.54703    0.55192    1.000
    N5228    N        0.96859    0.55262    0.51821    1.000
    N5229    N        0.91137    0.57883    0.61156    1.000
    Si5230   Si       0.93670    0.57373    0.57188    1.000
    N5231    N        0.90300    0.57642    0.54418    1.000
    Si5232   Si       0.82368    0.57482    0.72884    1.000
    Si5233   Si       0.78093    0.57574    0.64250    1.000
    N5234    N        0.82587    0.58019    0.64084    1.000
    N5235    N        0.81450    0.54030    0.70433    1.000
    Si5236   Si       0.91766    0.55713    0.65061    1.000
    N5237    N        0.87960    0.55631    0.66997    1.000
    N5238    N        0.91218    0.54903    0.73640    1.000
    Si5239   Si       0.93653    0.58093    0.72066    1.000
    N5240    N        0.76641    0.57846    0.86245    1.000
    Si5241   Si       0.79233    0.54574    0.86167    1.000
    N5242    N        0.84193    0.55677    0.76246    1.000
    N5243    N        0.81860    0.54596    0.82720    1.000
    Si5244   Si       0.86014    0.54698    0.84140    1.000
    Si5245   Si       0.88493    0.56182    0.76877    1.000
    N5246    N        0.87697    0.58456    0.85314    1.000
    N5247    N        0.88989    0.54208    0.80527    1.000
    N5248    N        0.96815    0.59088    0.74943    1.000
    N5249    N        0.81073    0.56978    0.96511    1.000
    Si5250   Si       0.82606    0.57537    0.92362    1.000
    N5251    N        0.82267    0.54380    0.89353    1.000
    N5252    N        0.74624    0.55549    0.92176    1.000
    Si5253   Si       0.76081    0.59188    0.90308    1.000
    Si5254   Si       0.98437    0.56651    0.98105    1.000
    N5255    N        0.95839    0.58888    0.95066    1.000
    Si5256   Si       0.89393    0.58241    0.89327    1.000
    N5257    N        0.97310    0.54461    0.89168    1.000
    N5258    N        0.88802    0.58968    0.99484    1.000
    Si5259   Si       0.96664    0.58314    0.90790    1.000
    N5260    N        0.90370    0.54152    0.90634    1.000
    N5261    N        0.86660    0.59328    0.92573    1.000
    N5262    N        0.84201    0.62415    0.09736    1.000
    Si5263   Si       0.80365    0.60987    0.07874    1.000
    N5264    N        0.78120    0.64784    0.07322    1.000
    Si5265   Si       0.92506    0.62173    0.21033    1.000
    N5266    N        0.80924    0.59842    0.03685    1.000
    N5267    N        0.89733    0.63064    0.04862    1.000
    Si5268   Si       0.98013    0.62475    0.03164    1.000
    N5269    N        0.95042    0.63742    0.99990    1.000
    Si5270   Si       0.87406    0.64819    0.08097    1.000
    N5271    N        0.79658    0.62928    0.15296    1.000
    Si5272   Si       0.83857    0.62365    0.14023    1.000
    N5273    N        0.78852    0.61579    0.23073    1.000
    N5274    N        0.93207    0.62842    0.16870    1.000
    N5275    N        0.88755    0.60122    0.22146    1.000
    Si5276   Si       0.97461    0.63809    0.16153    1.000
    Si5277   Si       0.90589    0.65643    0.14757    1.000
    N5278    N        0.81139    0.62005    0.29657    1.000
    N5279    N        0.84938    0.61721    0.35786    1.000
    Si5280   Si       0.77575    0.62363    0.27170    1.000
    Si5281   Si       0.84477    0.64565    0.28309    1.000
    Si5282   Si       0.80851    0.61824    0.33940    1.000
    N5283    N        0.87913    0.62242    0.29229    1.000
    Si5284   Si       0.88708    0.61513    0.33425    1.000
    N5285    N        0.91940    0.64211    0.34899    1.000
    Si5286   Si       0.95065    0.60790    0.35042    1.000
    N5287    N        0.89604    0.64139    0.41022    1.000
    N5288    N        0.83444    0.62129    0.43524    1.000
    Si5289   Si       0.97469    0.59567    0.42961    1.000
    N5290    N        0.89932    0.60631    0.46862    1.000
    Si5291   Si       0.86335    0.61468    0.39947    1.000
    N5292    N        0.95831    0.62912    0.45220    1.000
    Si5293   Si       0.91661    0.64217    0.44813    1.000
    Si5294   Si       0.74386    0.65083    0.42344    1.000
    Si5295   Si       0.96878    0.63822    0.49560    1.000
    N5296    N        0.84905    0.62363    0.59672    1.000
    Si5297   Si       0.82917    0.63999    0.51862    1.000
    N5298    N        0.81366    0.60268    0.50235    1.000
    N5299    N        0.80649    0.65288    0.55339    1.000
    N5300    N        0.87213    0.63677    0.52537    1.000
    N5301    N        0.93549    0.63510    0.52517    1.000
    Si5302   Si       0.95505    0.63784    0.60019    1.000
    Si5303   Si       0.88822    0.61726    0.61150    1.000
    Si5304   Si       0.90109    0.60846    0.51416    1.000
    N5305    N        0.91382    0.64460    0.58887    1.000
    N5306    N        0.96833    0.59954    0.58031    1.000
    Si5307   Si       0.85954    0.59343    0.66678    1.000
    N5308    N        0.84960    0.60372    0.70706    1.000
    Si5309   Si       0.75599    0.63909    0.67313    1.000
    Si5310   Si       0.82076    0.63762    0.71465    1.000
    N5311    N        0.79926    0.60860    0.73969    1.000
    Si5312   Si       0.92290    0.64162    0.67119    1.000
    Si5313   Si       0.88594    0.63645    0.73857    1.000
    N5314    N        0.92294    0.62325    0.71217    1.000
    N5315    N        0.95551    0.63012    0.64311    1.000
    Si5316   Si       0.98292    0.59814    0.65916    1.000
    N5317    N        0.88599    0.62514    0.65422    1.000
    Si5318   Si       0.94963    0.64485    0.74320    1.000
    Si5319   Si       0.74796    0.59259    0.57262    1.000
    N5320    N        0.75926    0.59483    0.67436    1.000
    Si5321   Si       0.76322    0.61900    0.75913    1.000
    N5322    N        0.77099    0.61617    0.80132    1.000
    Si5323   Si       0.80156    0.64005    0.81836    1.000
    N5324    N        0.84415    0.63628    0.82048    1.000
    Si5325   Si       0.74343    0.59794    0.83185    1.000
    N5326    N        0.78873    0.65146    0.85856    1.000
    N5327    N        0.89105    0.60649    0.77455    1.000
    Si5328   Si       0.93949    0.62898    0.85833    1.000
    Si5329   Si       0.88078    0.61140    0.81742    1.000
    N5330    N        0.90234    0.64444    0.83849    1.000
    N5331    N        0.95616    0.60533    0.82523    1.000
    Si5332   Si       0.98489    0.60918    0.79321    1.000
    N5333    N        0.97205    0.65086    0.77918    1.000
    N5334    N        0.83459    0.63187    0.97584    1.000
    N5335    N        0.79981    0.60864    0.91030    1.000
    Si5336   Si       0.81059    0.64830    0.89657    1.000
    N5337    N        0.76583    0.62642    0.98815    1.000
    Si5338   Si       0.80380    0.60549    0.99352    1.000
    Si5339   Si       0.87345    0.61476    0.96284    1.000
    N5340    N        0.93074    0.60329    0.89097    1.000
    Si5341   Si       0.94774    0.62955    0.95702    1.000
    N5342    N        0.90596    0.64138    0.95481    1.000
    Si5343   Si       0.80750    0.68210    0.08081    1.000
    N5344    N        0.84898    0.68182    0.06823    1.000
    N5345    N        0.90528    0.69424    0.02591    1.000
    Si5346   Si       0.94688    0.67454    0.09704    1.000
    N5347    N        0.95972    0.66332    0.05546    1.000
    Si5348   Si       0.92597    0.65814    0.03056    1.000
    Si5349   Si       0.87050    0.71162    0.04413    1.000
    N5350    N        0.90764    0.65641    0.10642    1.000
    N5351    N        0.98358    0.66647    0.19928    1.000
    N5352    N        0.79872    0.69143    0.12315    1.000
    N5353    N        0.78323    0.67921    0.19547    1.000
    Si5354   Si       0.77749    0.66731    0.15336    1.000
    Si5355   Si       0.80115    0.65624    0.22760    1.000
    N5356    N        0.84398    0.66120    0.24160    1.000
    N5357    N        0.86271    0.65596    0.15799    1.000
    Si5358   Si       0.87933    0.68288    0.23402    1.000
    N5359    N        0.91779    0.66482    0.22095    1.000
    Si5360   Si       0.95158    0.69406    0.21025    1.000
    N5361    N        0.91148    0.69740    0.15881    1.000
    Si5362   Si       0.86835    0.69827    0.16580    1.000
    N5363    N        0.97594    0.66321    0.12740    1.000
    N5364    N        0.84200    0.68071    0.30782    1.000
    Si5365   Si       0.80773    0.69276    0.33076    1.000
    Si5366   Si       0.75462    0.70152    0.27322    1.000
    N5367    N        0.77798    0.66595    0.26412    1.000
    Si5368   Si       0.74848    0.66635    0.35677    1.000
    N5369    N        0.79019    0.65689    0.34687    1.000
    N5370    N        0.89337    0.70344    0.27063    1.000
    N5371    N        0.75635    0.70336    0.37793    1.000
    N5372    N        0.83918    0.69429    0.42954    1.000
    N5373    N        0.78269    0.66808    0.42754    1.000
    N5374    N        0.81711    0.66978    0.48917    1.000
    Si5375   Si       0.79535    0.70352    0.40340    1.000
    Si5376   Si       0.81956    0.66087    0.44686    1.000
    Si5377   Si       0.88066    0.70317    0.43638    1.000
    N5378    N        0.97419    0.68209    0.49489    1.000
    N5379    N        0.95819    0.68508    0.38393    1.000
    Si5380   Si       0.95186    0.70997    0.46780    1.000
    Si5381   Si       0.91823    0.66790    0.38357    1.000
    N5382    N        0.91611    0.68510    0.45819    1.000
    N5383    N        0.89116    0.70206    0.39360    1.000
    N5384    N        0.75475    0.69530    0.58385    1.000
    N5385    N        0.75039    0.67204    0.51880    1.000
    N5386    N        0.81907    0.68727    0.61350    1.000
    Si5387   Si       0.76575    0.66302    0.55709    1.000
    Si5388   Si       0.83617    0.66340    0.58279    1.000
    Si5389   Si       0.78241    0.69559    0.50158    1.000
    Si5390   Si       0.77800    0.69397    0.62096    1.000
    N5391    N        0.86705    0.68664    0.56297    1.000
    N5392    N        0.92890    0.70100    0.55426    1.000
    N5393    N        0.97889    0.67165    0.58765    1.000
    Si5394   Si       0.90432    0.66238    0.54963    1.000
    Si5395   Si       0.96284    0.71270    0.58168    1.000
    N5396    N        0.75452    0.65840    0.63526    1.000
    Si5397   Si       0.85185    0.70346    0.71501    1.000
    Si5398   Si       0.78104    0.70096    0.69417    1.000
    N5399    N        0.85147    0.66329    0.72927    1.000
    N5400    N        0.78960    0.65727    0.69427    1.000
    N5401    N        0.85754    0.70529    0.67245    1.000
    N5402    N        0.73668    0.70498    0.69622    1.000
    N5403    N        0.97959    0.67035    0.72121    1.000
    Si5404   Si       0.89913    0.71167    0.65893    1.000
    N5405    N        0.92834    0.68554    0.67416    1.000
    Si5406   Si       0.96572    0.69817    0.68719    1.000
    N5407    N        0.80061    0.67897    0.79924    1.000
    Si5408   Si       0.76172    0.68941    0.78200    1.000
    Si5409   Si       0.76422    0.68781    0.85324    1.000
    N5410    N        0.75058    0.65944    0.75359    1.000
    N5411    N        0.86020    0.70568    0.83367    1.000
    N5412    N        0.97829    0.65669    0.93911    1.000
    Si5413   Si       0.86545    0.66499    0.84696    1.000
    Si5414   Si       0.96212    0.70287    0.85766    1.000
    N5415    N        0.91392    0.67030    0.75218    1.000
    Si5416   Si       0.98586    0.68847    0.76334    1.000
    N5417    N        0.96636    0.66198    0.86987    1.000
    Si5418   Si       0.76257    0.70438    0.92130    1.000
    Si5419   Si       0.82368    0.67041    0.96393    1.000
    N5420    N        0.79760    0.67675    0.92834    1.000
    N5421    N        0.84960    0.66409    0.88788    1.000
    N5422    N        0.73882    0.68909    0.88668    1.000
    Si5423   Si       0.75552    0.67025    0.98980    1.000
    N5424    N        0.86101    0.69014    0.95390    1.000
    Si5425   Si       0.86138    0.69935    0.90863    1.000
    Si5426   Si       0.98371    0.69001    0.96710    1.000
    N5427    N        0.79715    0.68537    0.99503    1.000
    N5428    N        0.90429    0.69936    0.91209    1.000
    Si5429   Si       0.90415    0.68531    0.95249    1.000
    N5430    N        0.94023    0.70204    0.97134    1.000
    Si5431   Si       0.77285    0.75238    0.07382    1.000
    N5432    N        0.84682    0.72989    0.01409    1.000
    Si5433   Si       0.80508    0.72359    0.01597    1.000
    N5434    N        0.79396    0.71858    0.05772    1.000
    N5435    N        0.78024    0.76078    0.11656    1.000
    N5436    N        0.78245    0.75631    0.99942    1.000
    Si5437   Si       0.92888    0.72698    0.00482    1.000
    N5438    N        0.96504    0.72582    0.02929    1.000
    Si5439   Si       0.92935    0.75138    0.08293    1.000
    N5440    N        0.89121    0.74611    0.06533    1.000
    N5441    N        0.94520    0.71617    0.10277    1.000
    Si5442   Si       0.98168    0.76667    0.03286    1.000
    N5443    N        0.90946    0.76618    0.99439    1.000
    N5444    N        0.86445    0.71533    0.20687    1.000
    N5445    N        0.85040    0.72491    0.13930    1.000
    Si5446   Si       0.80757    0.73163    0.13733    1.000
    N5447    N        0.79946    0.73946    0.18044    1.000
    Si5448   Si       0.76748    0.71842    0.20020    1.000
    Si5449   Si       0.84027    0.75083    0.19538    1.000
    N5450    N        0.91279    0.76545    0.12550    1.000
    Si5451   Si       0.87014    0.76214    0.13149    1.000
    N5452    N        0.96412    0.73476    0.17680    1.000
    N5453    N        0.95735    0.71770    0.24664    1.000
    Si5454   Si       0.93637    0.72877    0.14318    1.000
    N5455    N        0.76492    0.73072    0.24460    1.000
    N5456    N        0.83445    0.74366    0.28913    1.000
    Si5457   Si       0.79464    0.75806    0.30391    1.000
    Si5458   Si       0.74641    0.76917    0.25563    1.000
    N5459    N        0.77581    0.71639    0.30914    1.000
    N5460    N        0.82162    0.71523    0.36654    1.000
    Si5461   Si       0.96501    0.72693    0.39495    1.000
    Si5462   Si       0.86650    0.71593    0.30135    1.000
    Si5463   Si       0.92281    0.75470    0.34120    1.000
    N5464    N        0.88650    0.73156    0.33582    1.000
    N5465    N        0.94850    0.73489    0.31344    1.000
    Si5466   Si       0.92644    0.73169    0.27527    1.000
    N5467    N        0.89938    0.76644    0.27324    1.000
    Si5468   Si       0.81034    0.75934    0.37853    1.000
    N5469    N        0.79173    0.74726    0.41553    1.000
    Si5470   Si       0.77817    0.75724    0.45454    1.000
    N5471    N        0.76353    0.72116    0.47173    1.000
    N5472    N        0.81356    0.76816    0.48158    1.000
    N5473    N        0.85186    0.76834    0.38473    1.000
    Si5474   Si       0.86215    0.72793    0.37210    1.000
    N5475    N        0.87997    0.74539    0.45046    1.000
    Si5476   Si       0.91182    0.76934    0.47374    1.000
    N5477    N        0.97450    0.72805    0.43658    1.000
    N5478    N        0.93515    0.73935    0.49270    1.000
    N5479    N        0.93449    0.75485    0.38211    1.000
    Si5480   Si       0.75977    0.73848    0.56299    1.000
    N5481    N        0.78170    0.75070    0.60027    1.000
    Si5482   Si       0.80504    0.76345    0.52361    1.000
    N5483    N        0.79071    0.72285    0.53393    1.000
    Si5484   Si       0.88970    0.72054    0.57329    1.000
    N5485    N        0.96774    0.74988    0.55801    1.000
    N5486    N        0.90089    0.75783    0.55194    1.000
    Si5487   Si       0.93465    0.73909    0.53405    1.000
    N5488    N        0.89226    0.72264    0.61702    1.000
    N5489    N        0.84141    0.76339    0.62660    1.000
    Si5490   Si       0.77020    0.76051    0.64259    1.000
    N5491    N        0.78837    0.72066    0.65615    1.000
    Si5492   Si       0.83149    0.72066    0.64053    1.000
    N5493    N        0.81071    0.71906    0.72152    1.000
    Si5494   Si       0.88907    0.76834    0.62669    1.000
    N5495    N        0.97159    0.74308    0.68806    1.000
    Si5496   Si       0.88949    0.77055    0.70505    1.000
    N5497    N        0.97240    0.73214    0.62199    1.000
    N5498    N        0.88456    0.73098    0.72898    1.000
    N5499    N        0.90683    0.75509    0.66642    1.000
    Si5500   Si       0.95100    0.75892    0.64993    1.000
    N5501    N        0.82586    0.73997    0.78466    1.000
    N5502    N        0.76026    0.72966    0.76259    1.000
    Si5503   Si       0.79965    0.74636    0.75244    1.000
    N5504    N        0.79367    0.71985    0.85158    1.000
    N5505    N        0.91252    0.73928    0.79203    1.000
    Si5506   Si       0.95601    0.74260    0.79668    1.000
    Si5507   Si       0.88862    0.73839    0.82749    1.000
    N5508    N        0.92263    0.72511    0.85397    1.000
    N5509    N        0.95867    0.72096    0.75778    1.000
    N5510    N        0.98091    0.71373    0.81964    1.000
    Si5511   Si       0.91474    0.71396    0.75590    1.000
    Si5512   Si       0.74173    0.76896    0.99315    1.000
    N5513    N        0.78071    0.74316    0.91640    1.000
    Si5514   Si       0.80848    0.74592    0.88204    1.000
    N5515    N        0.84756    0.73956    0.89928    1.000
    N5516    N        0.96682    0.72684    0.89483    1.000
    Si5517   Si       0.92485    0.73293    0.89499    1.000
    N5518    N        0.91105    0.76810    0.91637    1.000
    Si5519   Si       0.86494    0.76628    0.99538    1.000
    Si5520   Si       0.82045    0.71246    0.81690    1.000
    Si5521   Si       0.81063    0.80647    0.08994    1.000
    N5522    N        0.78390    0.79122    0.06032    1.000
    Si5523   Si       0.77288    0.81909    0.02924    1.000
    N5524    N        0.84409    0.78022    0.09941    1.000
    N5525    N        0.80422    0.82523    0.99976    1.000
    N5526    N        0.85681    0.79818    0.02612    1.000
    Si5527   Si       0.87127    0.78525    0.06474    1.000
    N5528    N        0.95426    0.78091    0.06349    1.000
    N5529    N        0.89489    0.81690    0.07985    1.000
    Si5530   Si       0.93583    0.82117    0.06740    1.000
    N5531    N        0.78925    0.82525    0.12148    1.000
    Si5532   Si       0.75557    0.79748    0.12539    1.000
    N5533    N        0.84655    0.78160    0.22821    1.000
    N5534    N        0.74535    0.80073    0.16710    1.000
    Si5535   Si       0.86031    0.81239    0.20051    1.000
    Si5536   Si       0.91873    0.81025    0.13339    1.000
    N5537    N        0.86177    0.78025    0.17074    1.000
    N5538    N        0.97393    0.77900    0.23227    1.000
    N5539    N        0.93998    0.80446    0.17071    1.000
    Si5540   Si       0.96649    0.77684    0.18913    1.000
    N5541    N        0.97517    0.79132    0.99814    1.000
    N5542    N        0.77650    0.78803    0.27921    1.000
    Si5543   Si       0.79420    0.82252    0.34544    1.000
    N5544    N        0.79684    0.77941    0.34250    1.000
    N5545    N        0.85954    0.81042    0.29541    1.000
    Si5546   Si       0.85552    0.77476    0.26780    1.000
    Si5547   Si       0.90335    0.80422    0.29104    1.000
    N5548    N        0.91971    0.79650    0.32768    1.000
    Si5549   Si       0.92615    0.82858    0.35537    1.000
    N5550    N        0.98243    0.82897    0.28604    1.000
    N5551    N        0.93308    0.79228    0.44488    1.000
    N5552    N        0.74947    0.79277    0.45287    1.000
    N5553    N        0.84908    0.81032    0.43798    1.000
    Si5554   Si       0.85537    0.81077    0.39549    1.000
    Si5555   Si       0.85159    0.77663    0.46497    1.000
    N5556    N        0.89651    0.81954    0.38742    1.000
    Si5557   Si       0.96989    0.81315    0.45250    1.000
    N5558    N        0.95922    0.81534    0.38188    1.000
    Si5559   Si       0.92957    0.79256    0.40228    1.000
    N5560    N        0.87984    0.79002    0.49611    1.000
    Si5561   Si       0.75001    0.81548    0.52854    1.000
    N5562    N        0.80003    0.81645    0.59865    1.000
    Si5563   Si       0.81725    0.77544    0.59237    1.000
    N5564    N        0.76787    0.77982    0.54252    1.000
    N5565    N        0.83485    0.77525    0.55281    1.000
    Si5566   Si       0.95909    0.78559    0.58101    1.000
    N5567    N        0.94437    0.81618    0.55332    1.000
    Si5568   Si       0.87494    0.78985    0.54046    1.000
    N5569    N        0.92961    0.78175    0.61319    1.000
    N5570    N        0.88140    0.83321    0.55268    1.000
    Si5571   Si       0.83594    0.80179    0.65426    1.000
    Si5572   Si       0.83620    0.81254    0.72773    1.000
    N5573    N        0.79165    0.79567    0.65752    1.000
    N5574    N        0.85255    0.79095    0.69515    1.000
    N5575    N        0.80419    0.78825    0.74591    1.000
    N5576    N        0.74282    0.81901    0.74680    1.000
    N5577    N        0.96055    0.80174    0.66631    1.000
    Si5578   Si       0.96197    0.78340    0.70549    1.000
    Si5579   Si       0.92385    0.82341    0.64376    1.000
    N5580    N        0.92289    0.79226    0.72227    1.000
    N5581    N        0.87961    0.81300    0.63446    1.000
    Si5582   Si       0.77192    0.80194    0.84926    1.000
    N5583    N        0.76571    0.79571    0.80813    1.000
    Si5584   Si       0.84593    0.80603    0.85802    1.000
    Si5585   Si       0.77804    0.81048    0.77024    1.000
    N5586    N        0.81005    0.78509    0.86310    1.000
    N5587    N        0.86803    0.81156    0.75770    1.000
    N5588    N        0.97531    0.78033    0.81003    1.000
    Si5589   Si       0.95805    0.82189    0.80461    1.000
    Si5590   Si       0.87645    0.80719    0.80146    1.000
    N5591    N        0.91754    0.81744    0.79469    1.000
    Si5592   Si       0.91205    0.82269    0.75108    1.000
    N5593    N        0.87170    0.77774    0.83587    1.000
    N5594    N        0.74550    0.78257    0.87858    1.000
    Si5595   Si       0.81683    0.81556    0.95960    1.000
    N5596    N        0.78800    0.81774    0.92645    1.000
    N5597    N        0.84655    0.78253    0.95933    1.000
    Si5598   Si       0.76338    0.78356    0.91872    1.000
    Si5599   Si       0.86616    0.77409    0.91992    1.000
    N5600    N        0.86327    0.81216    0.89839    1.000
    Si5601   Si       0.94456    0.79713    0.92275    1.000
    N5602    N        0.93272    0.82410    0.95796    1.000
    N5603    N        0.95191    0.83200    0.90008    1.000
    Si5604   Si       0.93365    0.80225    0.99563    1.000
    N5605    N        0.98377    0.78225    0.93336    1.000
    N5606    N        0.77220    0.86014    0.04574    1.000
    Si5607   Si       0.79826    0.87423    0.07824    1.000
    N5608    N        0.82973    0.84195    0.07109    1.000
    Si5609   Si       0.74318    0.88590    0.02401    1.000
    N5610    N        0.77272    0.88742    0.11096    1.000
    Si5611   Si       0.83638    0.83588    0.02823    1.000
    N5612    N        0.86489    0.86733    0.01879    1.000
    Si5613   Si       0.86750    0.85124    0.09461    1.000
    Si5614   Si       0.90737    0.86984    0.01321    1.000
    N5615    N        0.92692    0.83273    0.02581    1.000
    N5616    N        0.94901    0.83473    0.10813    1.000
    Si5617   Si       0.79321    0.86355    0.14128    1.000
    Si5618   Si       0.79965    0.86693    0.20919    1.000
    N5619    N        0.83347    0.84574    0.18982    1.000
    N5620    N        0.76900    0.86726    0.17756    1.000
    N5621    N        0.83223    0.88212    0.12982    1.000
    N5622    N        0.77972    0.83793    0.23289    1.000
    Si5623   Si       0.85904    0.86741    0.16120    1.000
    N5624    N        0.97189    0.84497    0.22224    1.000
    N5625    N        0.94030    0.87661    0.16696    1.000
    Si5626   Si       0.98210    0.88422    0.23977    1.000
    N5627    N        0.88147    0.84074    0.13669    1.000
    N5628    N        0.89719    0.83513    0.21143    1.000
    Si5629   Si       0.93642    0.84083    0.19737    1.000
    Si5630   Si       0.96053    0.87222    0.12863    1.000
    Si5631   Si       0.89225    0.86271    0.24548    1.000
    Si5632   Si       0.75252    0.82952    0.19988    1.000
    Si5633   Si       0.84388    0.85099    0.30129    1.000
    N5634    N        0.80066    0.84295    0.30671    1.000
    N5635    N        0.85426    0.87038    0.26370    1.000
    Si5636   Si       0.77233    0.83317    0.27468    1.000
    Si5637   Si       0.84678    0.87271    0.37340    1.000
    N5638    N        0.86645    0.86932    0.33552    1.000
    N5639    N        0.91632    0.84039    0.27438    1.000
    N5640    N        0.93674    0.86427    0.33395    1.000
    Si5641   Si       0.94973    0.85490    0.29473    1.000
    N5642    N        0.83922    0.87079    0.48303    1.000
    N5643    N        0.82325    0.83667    0.37534    1.000
    N5644    N        0.85730    0.87079    0.41517    1.000
    Si5645   Si       0.83390    0.85049    0.44556    1.000
    N5646    N        0.79103    0.84642    0.43811    1.000
    Si5647   Si       0.78412    0.85797    0.39687    1.000
    Si5648   Si       0.76094    0.83317    0.46539    1.000
    N5649    N        0.96279    0.85587    0.44624    1.000
    Si5650   Si       0.94243    0.88468    0.47434    1.000
    N5651    N        0.76043    0.83151    0.37238    1.000
    N5652    N        0.81522    0.86999    0.55124    1.000
    Si5653   Si       0.78652    0.85058    0.57501    1.000
    Si5654   Si       0.85641    0.86878    0.56102    1.000
    Si5655   Si       0.80273    0.87037    0.50850    1.000
    N5656    N        0.78088    0.87354    0.61451    1.000
    N5657    N        0.74558    0.84560    0.56096    1.000
    N5658    N        0.78122    0.83300    0.50400    1.000
    N5659    N        0.86762    0.87969    0.60424    1.000
    Si5660   Si       0.91869    0.85281    0.54996    1.000
    N5661    N        0.93929    0.86074    0.50896    1.000
    Si5662   Si       0.96381    0.88799    0.60346    1.000
    Si5663   Si       0.86883    0.85710    0.63907    1.000
    Si5664   Si       0.96929    0.83346    0.52176    1.000
    N5665    N        0.91793    0.86542    0.74098    1.000
    N5666    N        0.83005    0.84716    0.65567    1.000
    Si5667   Si       0.81111    0.87189    0.68474    1.000
    N5668    N        0.82112    0.85347    0.72351    1.000
    N5669    N        0.76959    0.85887    0.68227    1.000
    Si5670   Si       0.77742    0.83512    0.64100    1.000
    Si5671   Si       0.74204    0.84690    0.71288    1.000
    N5672    N        0.90334    0.85761    0.66579    1.000
    N5673    N        0.95679    0.84816    0.62604    1.000
    Si5674   Si       0.91041    0.88059    0.70067    1.000
    Si5675   Si       0.78004    0.87094    0.81964    1.000
    N5676    N        0.79391    0.84916    0.78334    1.000
    Si5677   Si       0.81792    0.87680    0.75801    1.000
    N5678    N        0.77490    0.84538    0.85518    1.000
    Si5679   Si       0.85415    0.87764    0.82065    1.000
    N5680    N        0.85616    0.88550    0.77769    1.000
    N5681    N        0.84964    0.83398    0.82410    1.000
    N5682    N        0.96009    0.84972    0.83678    1.000
    Si5683   Si       0.95875    0.87619    0.75652    1.000
    N5684    N        0.89619    0.88230    0.83538    1.000
    Si5685   Si       0.93853    0.88638    0.82840    1.000
    N5686    N        0.97335    0.83541    0.76385    1.000
    N5687    N        0.82447    0.87191    0.89540    1.000
    N5688    N        0.84450    0.85275    0.95294    1.000
    N5689    N        0.75061    0.87397    0.91350    1.000
    Si5690   Si       0.78440    0.85156    0.89767    1.000
    Si5691   Si       0.85914    0.85165    0.91169    1.000
    Si5692   Si       0.85676    0.88429    0.97914    1.000
    N5693    N        0.89852    0.88952    0.97337    1.000
    Si5694   Si       0.98280    0.84407    0.87215    1.000
    N5695    N        0.95450    0.88776    0.94063    1.000
    N5696    N        0.89640    0.87235    0.90490    1.000
    Si5697   Si       0.92948    0.85676    0.92813    1.000
    Si5698   Si       0.83182    0.93254    0.03311    1.000
    N5699    N        0.81720    0.91255    0.07077    1.000
    N5700    N        0.74706    0.92594    0.04207    1.000
    Si5701   Si       0.84525    0.91523    0.10350    1.000
    Si5702   Si       0.78072    0.94095    0.06556    1.000
    Si5703   Si       0.91991    0.90968    0.07537    1.000
    N5704    N        0.92450    0.90247    0.03484    1.000
    Si5705   Si       0.95516    0.93395    0.01762    1.000
    N5706    N        0.95827    0.89764    0.09429    1.000
    N5707    N        0.88087    0.89329    0.08805    1.000
    N5708    N        0.86693    0.95315    0.04386    1.000
    Si5709   Si       0.75974    0.92225    0.12969    1.000
    N5710    N        0.80542    0.90322    0.23149    1.000
    N5711    N        0.78454    0.93447    0.16389    1.000
    Si5712   Si       0.77030    0.92734    0.23868    1.000
    N5713    N        0.91464    0.94916    0.18540    1.000
    N5714    N        0.86745    0.93532    0.23887    1.000
    N5715    N        0.98565    0.91755    0.21185    1.000
    Si5716   Si       0.92031    0.90720    0.19101    1.000
    N5717    N        0.87748    0.89930    0.18408    1.000
    N5718    N        0.92090    0.89453    0.23374    1.000
    Si5719   Si       0.86981    0.94122    0.19740    1.000
    Si5720   Si       0.99202    0.90664    0.06899    1.000
    N5721    N        0.98968    0.90723    0.02391    1.000
    N5722    N        0.76784    0.92414    0.28240    1.000
    N5723    N        0.83301    0.93254    0.29562    1.000
    Si5724   Si       0.83855    0.91076    0.25737    1.000
    Si5725   Si       0.79512    0.94835    0.30706    1.000
    N5726    N        0.83076    0.91266    0.37321    1.000
    Si5727   Si       0.98837    0.90690    0.31543    1.000
    N5728    N        0.90351    0.92001    0.30121    1.000
    N5729    N        0.96348    0.92953    0.34295    1.000
    Si5730   Si       0.93050    0.92097    0.26689    1.000
    N5731    N        0.96453    0.89313    0.27976    1.000
    Si5732   Si       0.90384    0.89246    0.33673    1.000
    Si5733   Si       0.79184    0.93470    0.38565    1.000
    N5734    N        0.76921    0.89982    0.40271    1.000
    N5735    N        0.86033    0.94517    0.48296    1.000
    N5736    N        0.90138    0.89543    0.46040    1.000
    N5737    N        0.90940    0.90221    0.37986    1.000
    N5738    N        0.87500    0.94218    0.41936    1.000
    Si5739   Si       0.88978    0.90002    0.42090    1.000
    Si5740   Si       0.86961    0.90233    0.48990    1.000
    N5741    N        0.96498    0.92020    0.48243    1.000
    Si5742   Si       0.94388    0.93069    0.38153    1.000
    N5743    N        0.97071    0.91757    0.41286    1.000
    N5744    N        0.76214    0.91775    0.56580    1.000
    N5745    N        0.82305    0.93444    0.59704    1.000
    Si5746   Si       0.77119    0.93565    0.52792    1.000
    Si5747   Si       0.78447    0.91521    0.60371    1.000
    N5748    N        0.77097    0.89959    0.50311    1.000
    Si5749   Si       0.86057    0.92090    0.61357    1.000
    Si5750   Si       0.90873    0.92416    0.55432    1.000
    N5751    N        0.88749    0.94461    0.58652    1.000
    N5752    N        0.87931    0.89635    0.53303    1.000
    N5753    N        0.82008    0.91303    0.67271    1.000
    N5754    N        0.76756    0.94203    0.63244    1.000
    Si5755   Si       0.86024    0.93430    0.68920    1.000
    N5756    N        0.93823    0.91110    0.69072    1.000
    Si5757   Si       0.92521    0.93337    0.65583    1.000
    N5758    N        0.95299    0.92177    0.62527    1.000
    N5759    N        0.87491    0.90048    0.71325    1.000
    Si5760   Si       0.98033    0.90717    0.69461    1.000
    N5761    N        0.88131    0.92863    0.65090    1.000
    Si5762   Si       0.79822    0.94892    0.66689    1.000
    N5763    N        0.93292    0.88920    0.57012    1.000
    N5764    N        0.98739    0.89531    0.73480    1.000
    Si5765   Si       0.75065    0.90571    0.76249    1.000
    Si5766   Si       0.79948    0.93874    0.83547    1.000
    N5767    N        0.81465    0.89719    0.82703    1.000
    N5768    N        0.74930    0.89822    0.80499    1.000
    N5769    N        0.79153    0.91097    0.74952    1.000
    N5770    N        0.86347    0.92871    0.86994    1.000
    N5771    N        0.74085    0.94786    0.75893    1.000
    N5772    N        0.94205    0.92457    0.85540    1.000
    N5773    N        0.95738    0.90020    0.79167    1.000
    N5774    N        0.90273    0.93749    0.76647    1.000
    Si5775   Si       0.88894    0.89858    0.75439    1.000
    Si5776   Si       0.98365    0.93141    0.80147    1.000
    N5777    N        0.78942    0.93049    0.87811    1.000
    Si5778   Si       0.81922    0.94055    0.95944    1.000
    N5779    N        0.84573    0.93409    0.92761    1.000
    Si5780   Si       0.75481    0.91747    0.90266    1.000
    Si5781   Si       0.82732    0.91575    0.89250    1.000
    N5782    N        0.78164    0.92751    0.94288    1.000
    Si5783   Si       0.74292    0.92797    0.96348    1.000
    N5784    N        0.83012    0.91555    0.99378    1.000
    Si5785   Si       0.92333    0.91634    0.95104    1.000
    N5786    N        0.91268    0.93607    0.91353    1.000
    Si5787   Si       0.90098    0.90425    0.87666    1.000
    Si5788   Si       0.95198    0.94284    0.89368    1.000
    N5789    N        0.93452    0.94876    0.98094    1.000
    N5790    N        0.80233    0.96398    0.03662    1.000
    N5791    N        0.76092    0.95406    0.10041    1.000
    Si5792   Si       0.81124    0.00581    0.02939    1.000
    N5793    N        0.86324    0.95567    0.11640    1.000
    N5794    N        0.92374    0.95293    0.07950    1.000
    Si5795   Si       0.88308    0.97073    0.08034    1.000
    Si5796   Si       0.95995    0.97134    0.09395    1.000
    N5797    N        0.97800    0.97355    0.02636    1.000
    Si5798   Si       0.97749    0.95873    0.22512    1.000
    N5799    N        0.78304    0.96585    0.22549    1.000
    Si5800   Si       0.79717    0.97001    0.18305    1.000
    N5801    N        0.84140    0.96748    0.18075    1.000
    Si5802   Si       0.86020    0.98660    0.14631    1.000
    N5803    N        0.95668    0.98251    0.13464    1.000
    N5804    N        0.96468    0.99203    0.19788    1.000
    Si5805   Si       0.93166    0.98395    0.16876    1.000
    N5806    N        0.78529    0.98831    0.29480    1.000
    Si5807   Si       0.78351    0.00023    0.25328    1.000
    Si5808   Si       0.74692    0.97186    0.35848    1.000
    N5809    N        0.87463    0.96156    0.34716    1.000
    Si5810   Si       0.92175    0.99219    0.27784    1.000
    N5811    N        0.93937    0.98953    0.31706    1.000
    N5812    N        0.87839    0.98763    0.28334    1.000
    Si5813   Si       0.90943    0.98997    0.35099    1.000
    Si5814   Si       0.97656    0.96841    0.32375    1.000
    N5815    N        0.94440    0.96048    0.25657    1.000
    Si5816   Si       0.87155    0.94996    0.30441    1.000
    N5817    N        0.74663    0.95661    0.39931    1.000
    N5818    N        0.81790    0.96875    0.39886    1.000
    N5819    N        0.80247    0.98805    0.46690    1.000
    Si5820   Si       0.82180    0.00087    0.43054    1.000
    Si5821   Si       0.76690    0.99667    0.49014    1.000
    N5822    N        0.86397    0.00242    0.44889    1.000
    Si5823   Si       0.85407    0.94911    0.38258    1.000
    N5824    N        0.92923    0.97214    0.38547    1.000
    Si5825   Si       0.94853    0.96016    0.49352    1.000
    Si5826   Si       0.88543    0.96529    0.45329    1.000
    Si5827   Si       0.93894    0.99666    0.41975    1.000
    N5828    N        0.92718    0.97448    0.45684    1.000
    N5829    N        0.98112    0.00208    0.40885    1.000
    N5830    N        0.77790    0.94584    0.34589    1.000
    Si5831   Si       0.81387    0.96899    0.57502    1.000
    N5832    N        0.77627    0.99027    0.58284    1.000
    N5833    N        0.84392    0.99938    0.58324    1.000
    N5834    N        0.74620    0.96877    0.51672    1.000
    Si5835   Si       0.74797    0.97325    0.61337    1.000
    N5836    N        0.80893    0.95724    0.53272    1.000
    Si5837   Si       0.83189    0.97369    0.49888    1.000
    N5838    N        0.97460    0.98379    0.52177    1.000
    Si5839   Si       0.89771    0.98527    0.59157    1.000
    N5840    N        0.94228    0.98071    0.58891    1.000
    Si5841   Si       0.93857    0.99241    0.54744    1.000
    N5842    N        0.92102    0.95649    0.52811    1.000
    Si5843   Si       0.97501    0.97939    0.68984    1.000
    N5844    N        0.82256    0.98204    0.65228    1.000
    N5845    N        0.77000    0.96129    0.69597    1.000
    N5846    N        0.83030    0.95889    0.71511    1.000
    Si5847   Si       0.85822    0.99357    0.72013    1.000
    Si5848   Si       0.79190    0.95138    0.73388    1.000
    N5849    N        0.97478    0.97594    0.73325    1.000
    Si5850   Si       0.90824    0.99838    0.66796    1.000
    N5851    N        0.88635    0.00312    0.63040    1.000
    Si5852   Si       0.96439    0.96373    0.62106    1.000
    N5853    N        0.88918    0.97116    0.69754    1.000
    N5854    N        0.94356    0.97396    0.65827    1.000
    Si5855   Si       0.84379    0.00778    0.62676    1.000
    N5856    N        0.79148    0.98649    0.76174    1.000
    Si5857   Si       0.82522    0.99010    0.79130    1.000
    N5858    N        0.77220    0.97580    0.82650    1.000
    N5859    N        0.83196    0.95944    0.82086    1.000
    Si5860   Si       0.74353    0.97267    0.79519    1.000
    N5861    N        0.85816    0.99477    0.76364    1.000
    Si5862   Si       0.86544    0.96731    0.85024    1.000
    Si5863   Si       0.89444    0.97784    0.78112    1.000
    N5864    N        0.96828    0.97039    0.80800    1.000
    N5865    N        0.89839    0.97809    0.82497    1.000
    Si5866   Si       0.93931    0.96837    0.83904    1.000
    Si5867   Si       0.96618    0.99482    0.77020    1.000
    N5868    N        0.92418    0.00664    0.77027    1.000
    Si5869   Si       0.77022    0.99369    0.97142    1.000
    N5870    N        0.81291    0.98282    0.96628    1.000
    N5871    N        0.74094    0.96463    0.98557    1.000
    Si5872   Si       0.84727    0.00617    0.96822    1.000
    N5873    N        0.86329    0.99002    0.88701    1.000
    N5874    N        0.94624    0.98562    0.87794    1.000
    Si5875   Si       0.87848    0.96237    0.91744    1.000
    N5876    N        0.98452    0.95609    0.91686    1.000
    Si5877   Si       0.92323    0.99026    0.97215    1.000
    Si5878   Si       0.97191    0.00567    0.90688    1.000
    N5879    N        0.88205    0.98623    0.95400    1.000
