# CIF file generated by openbabel 3.1.1, see https://openbabel.org
data_I
_chemical_name_common '3.01-59.aims'
_cell_length_a 39.8931
_cell_length_b 39.8931
_cell_length_c 39.8931
_cell_angle_alpha 90
_cell_angle_beta 90
_cell_angle_gamma 90
loop_
    _atom_site_label
    _atom_site_type_symbol
    _atom_site_fract_x
    _atom_site_fract_y
    _atom_site_fract_z
    _atom_site_occupancy
    N0       N        0.03020    0.07005    0.06998    1.000
    Si1      Si       0.01030    0.10805    0.07653    1.000
    Si2      Si       0.00778    0.03091    0.07539    1.000
    N3       N        0.01460    0.01926    0.11594    1.000
    N4       N        0.99611    0.11427    0.11765    1.000
    Si5      Si       0.03677    0.13407    0.01138    1.000
    N6       N        0.02991    0.14088    0.05456    1.000
    N7       N        0.04040    0.17021    0.11387    1.000
    Si8      Si       0.04317    0.21641    0.01057    1.000
    N9       N        0.04393    0.17430    0.00079    1.000
    N10      N        0.04550    0.21923    0.05512    1.000
    Si11     Si       0.01751    0.01745    0.20094    1.000
    N12      N        0.01978    0.10647    0.23725    1.000
    N13      N        0.99259    0.04825    0.21660    1.000
    Si14     Si       0.99885    0.12800    0.20551    1.000
    N15      N        0.02166    0.14997    0.17635    1.000
    Si16     Si       0.00857    0.23756    0.20634    1.000
    N17      N        0.04134    0.21097    0.21890    1.000
    Si18     Si       0.00665    0.15398    0.13497    1.000
    N19      N        0.02097    0.05203    0.28631    1.000
    Si20     Si       0.00748    0.04091    0.32619    1.000
    N21      N        0.03939    0.02148    0.34654    1.000
    Si22     Si       0.99825    0.07132    0.25356    1.000
    N23      N        0.99272    0.07808    0.35044    1.000
    N24      N        0.99661    0.13541    0.30583    1.000
    Si25     Si       0.04215    0.22183    0.32747    1.000
    N26      N        0.03080    0.23083    0.28544    1.000
    N27      N        0.01028    0.24580    0.34636    1.000
    N28      N        0.03512    0.18326    0.34276    1.000
    Si29     Si       0.03577    0.15258    0.31220    1.000
    N30      N        0.02062    0.05739    0.48051    1.000
    Si31     Si       0.00073    0.07106    0.39567    1.000
    Si32     Si       0.02959    0.12103    0.44005    1.000
    N33      N        0.99605    0.09519    0.43124    1.000
    Si34     Si       0.01610    0.01573    0.48856    1.000
    N35      N        0.04581    0.06821    0.39122    1.000
    N36      N        0.01044    0.21078    0.40282    1.000
    N37      N        0.03768    0.13986    0.40056    1.000
    Si38     Si       0.01790    0.17361    0.38173    1.000
    Si39     Si       0.02400    0.25022    0.38622    1.000
    N40      N        0.02173    0.14624    0.47534    1.000
    N41      N        0.02524    0.03502    0.59092    1.000
    N42      N        0.99751    0.01247    0.52870    1.000
    N43      N        0.00832    0.13586    0.54532    1.000
    N44      N        0.99977    0.13853    0.61479    1.000
    N45      N        0.01505    0.24946    0.58208    1.000
    Si46     Si       0.00283    0.21581    0.60654    1.000
    N47      N        0.04083    0.19662    0.61549    1.000
    Si48     Si       0.04158    0.15303    0.61463    1.000
    N49      N        0.03084    0.20955    0.50133    1.000
    Si50     Si       0.99072    0.14073    0.50509    1.000
    Si51     Si       0.99972    0.12084    0.65459    1.000
    Si52     Si       0.01106    0.04433    0.63221    1.000
    Si53     Si       0.04045    0.06270    0.68697    1.000
    N54      N        0.01851    0.06905    0.72424    1.000
    N55      N        0.02287    0.08360    0.65314    1.000
    N56      N        0.02830    0.02497    0.66673    1.000
    N57      N        0.99816    0.13284    0.69774    1.000
    Si58     Si       0.00232    0.10662    0.74300    1.000
    Si59     Si       0.01682    0.16838    0.71722    1.000
    Si60     Si       0.00580    0.23341    0.67717    1.000
    N61      N        0.99333    0.20354    0.70625    1.000
    N62      N        0.01848    0.09119    0.78174    1.000
    Si63     Si       0.02347    0.05074    0.76437    1.000
    Si64     Si       0.00153    0.10728    0.81780    1.000
    N65      N        0.01007    0.08271    0.85100    1.000
    Si66     Si       0.99602    0.04273    0.83902    1.000
    N67      N        0.01607    0.01323    0.86075    1.000
    N68      N        0.99621    0.03340    0.79624    1.000
    N69      N        0.03418    0.00778    0.75031    1.000
    N70      N        0.02788    0.14221    0.82183    1.000
    N71      N        0.04233    0.20412    0.79485    1.000
    Si72     Si       0.02305    0.24508    0.80746    1.000
    Si73     Si       0.01306    0.17214    0.79547    1.000
    N74      N        0.02997    0.24227    0.85057    1.000
    N75      N        0.01129    0.14910    0.75644    1.000
    Si76     Si       0.03706    0.08742    0.88291    1.000
    Si77     Si       0.02459    0.04352    0.94760    1.000
    N78      N        0.02300    0.08424    0.92529    1.000
    N79      N        0.00696    0.11351    0.99058    1.000
    Si80     Si       0.99417    0.10690    0.94711    1.000
    N81      N        0.03897    0.04189    0.98784    1.000
    N82      N        0.04846    0.01553    0.92276    1.000
    Si83     Si       0.00994    0.21679    0.88347    1.000
    N84      N        0.01009    0.23877    0.99402    1.000
    N85      N        0.99559    0.14328    0.92332    1.000
    N86      N        0.04195    0.18853    0.89219    1.000
    Si87     Si       0.03695    0.15213    0.91530    1.000
    N88      N        0.00830    0.23912    0.92148    1.000
    N89      N        0.00297    0.27224    0.07246    1.000
    N90      N        0.04349    0.35015    0.00447    1.000
    Si91     Si       0.04428    0.26145    0.06629    1.000
    Si92     Si       0.01758    0.28302    0.99900    1.000
    N93      N        0.03885    0.38479    0.12231    1.000
    Si94     Si       0.04269    0.39153    0.01406    1.000
    N95      N        0.01775    0.45381    0.09842    1.000
    N96      N        0.01407    0.46405    0.03108    1.000
    N97      N        0.03643    0.40111    0.05610    1.000
    Si98     Si       0.00739    0.43339    0.06139    1.000
    Si99     Si       0.00336    0.49378    0.10823    1.000
    Si100    Si       0.03001    0.50140    0.04337    1.000
    N101     N        0.99300    0.26496    0.23440    1.000
    Si102    Si       0.99132    0.28333    0.15270    1.000
    N103     N        0.99677    0.32081    0.13123    1.000
    N104     N        0.03939    0.32112    0.21588    1.000
    Si105    Si       0.00338    0.34680    0.22145    1.000
    Si106    Si       0.02573    0.35118    0.14643    1.000
    N107     N        0.00162    0.36446    0.18273    1.000
    N108     N        0.02734    0.26491    0.17433    1.000
    N109     N        0.01044    0.42942    0.16423    1.000
    Si110    Si       0.03477    0.42814    0.12841    1.000
    N111     N        0.01383    0.43315    0.22855    1.000
    Si112    Si       0.01264    0.47487    0.24157    1.000
    N113     N        0.03707    0.48458    0.20695    1.000
    Si114    Si       0.04087    0.44331    0.19505    1.000
    N115     N        0.02551    0.30169    0.28027    1.000
    Si116    Si       0.00983    0.34100    0.29341    1.000
    N117     N        0.00918    0.31884    0.34874    1.000
    N118     N        0.01329    0.36727    0.25748    1.000
    Si119    Si       0.00438    0.26343    0.27681    1.000
    N120     N        0.04745    0.35654    0.30851    1.000
    Si121    Si       0.01057    0.40926    0.26513    1.000
    N122     N        0.01022    0.42495    0.30903    1.000
    N123     N        0.02867    0.48397    0.28020    1.000
    N124     N        0.01506    0.48512    0.34873    1.000
    Si125    Si       0.04588    0.44728    0.30169    1.000
    Si126    Si       0.00692    0.50747    0.31184    1.000
    N127     N        0.05027    0.42023    0.37450    1.000
    N128     N        0.02220    0.33380    0.47130    1.000
    Si129    Si       0.02794    0.37271    0.45063    1.000
    N130     N        0.00744    0.37049    0.41084    1.000
    N131     N        0.00730    0.40970    0.46305    1.000
    Si132    Si       0.04446    0.38207    0.39234    1.000
    Si133    Si       0.03497    0.46101    0.38144    1.000
    Si134    Si       0.02700    0.49893    0.49062    1.000
    N135     N        0.99551    0.45392    0.40171    1.000
    N136     N        0.02492    0.28414    0.52631    1.000
    Si137    Si       0.00196    0.37327    0.55129    1.000
    N138     N        0.04281    0.35875    0.54566    1.000
    Si139    Si       0.99243    0.27171    0.55085    1.000
    N140     N        0.99167    0.36796    0.59297    1.000
    N141     N        0.00982    0.41449    0.53640    1.000
    N142     N        0.01588    0.47614    0.55945    1.000
    Si143    Si       0.03179    0.43729    0.56823    1.000
    N144     N        0.02771    0.42799    0.60947    1.000
    Si145    Si       0.02826    0.42315    0.49741    1.000
    Si146    Si       0.04724    0.50746    0.55951    1.000
    Si147    Si       0.04509    0.32044    0.62069    1.000
    N148     N        0.00312    0.31145    0.63276    1.000
    N149     N        0.00536    0.27384    0.68850    1.000
    N150     N        0.04337    0.38532    0.70538    1.000
    N151     N        0.04985    0.36435    0.62945    1.000
    N152     N        0.02697    0.44836    0.67546    1.000
    Si153    Si       0.02236    0.49011    0.68955    1.000
    Si154    Si       0.01348    0.39059    0.62403    1.000
    N155     N        0.02811    0.47391    0.73614    1.000
    Si156    Si       0.00928    0.41004    0.69319    1.000
    Si157    Si       0.01846    0.35248    0.81684    1.000
    Si158    Si       0.03379    0.31027    0.75718    1.000
    N159     N        0.99986    0.31308    0.82467    1.000
    N160     N        0.04422    0.34383    0.78344    1.000
    N161     N        0.04647    0.27323    0.78154    1.000
    N162     N        0.99094    0.31105    0.75353    1.000
    N163     N        0.03639    0.38849    0.83404    1.000
    N164     N        0.01438    0.45295    0.84670    1.000
    Si165    Si       0.00097    0.41578    0.82756    1.000
    N166     N        0.99915    0.42764    0.78677    1.000
    Si167    Si       0.99455    0.45298    0.75305    1.000
    Si168    Si       0.02137    0.27988    0.92189    1.000
    N169     N        0.01070    0.35884    0.94458    1.000
    N170     N        0.03132    0.29531    0.96130    1.000
    Si171    Si       0.04192    0.33755    0.96326    1.000
    N172     N        0.99505    0.35883    0.87970    1.000
    Si173    Si       0.02246    0.40077    0.94361    1.000
    N174     N        0.01592    0.41291    0.98588    1.000
    Si175    Si       0.01013    0.45668    0.98888    1.000
    N176     N        0.99405    0.42274    0.91764    1.000
    N177     N        0.04450    0.46772    0.96649    1.000
    N178     N        0.01169    0.58310    0.05232    1.000
    Si179    Si       0.02467    0.62229    0.06969    1.000
    Si180    Si       0.01513    0.56359    0.01176    1.000
    N181     N        0.00048    0.51676    0.07094    1.000
    N182     N        0.99118    0.56295    0.11681    1.000
    N183     N        0.04408    0.53314    0.01717    1.000
    N184     N        0.00081    0.63725    0.10426    1.000
    N185     N        0.00803    0.65074    0.04211    1.000
    Si186    Si       0.03464    0.72296    0.10560    1.000
    N187     N        0.99783    0.70520    0.09155    1.000
    Si188    Si       0.99319    0.67233    0.00614    1.000
    Si189    Si       0.00445    0.58547    0.20368    1.000
    N190     N        0.01840    0.54831    0.18378    1.000
    Si191    Si       0.02709    0.55323    0.14042    1.000
    N192     N        0.04454    0.60549    0.20853    1.000
    N193     N        0.03736    0.51253    0.12872    1.000
    N194     N        0.00982    0.74537    0.13875    1.000
    Si195    Si       0.99745    0.64127    0.14846    1.000
    N196     N        0.02100    0.74174    0.20823    1.000
    Si197    Si       0.99155    0.74973    0.23999    1.000
    N198     N        0.02496    0.66142    0.17509    1.000
    Si199    Si       0.02714    0.64692    0.21635    1.000
    N200     N        0.03200    0.68073    0.24198    1.000
    Si201    Si       0.03709    0.57855    0.32164    1.000
    N202     N        0.03298    0.59948    0.28420    1.000
    N203     N        0.00067    0.59634    0.33931    1.000
    N204     N        0.03908    0.53809    0.31176    1.000
    Si205    Si       0.99459    0.62030    0.28095    1.000
    Si206    Si       0.00547    0.64012    0.34500    1.000
    Si207    Si       0.01451    0.69190    0.28108    1.000
    N208     N        0.00122    0.65661    0.30377    1.000
    N209     N        0.03997    0.65833    0.36093    1.000
    N210     N        0.01836    0.57513    0.48544    1.000
    N211     N        0.02508    0.57277    0.41009    1.000
    Si212    Si       0.01297    0.55556    0.44666    1.000
    N213     N        0.03708    0.51904    0.45207    1.000
    N214     N        0.02372    0.72200    0.38202    1.000
    Si215    Si       0.01570    0.73872    0.49081    1.000
    N216     N        0.02228    0.74624    0.44817    1.000
    Si217    Si       0.02516    0.75934    0.40440    1.000
    N218     N        0.01877    0.65898    0.46549    1.000
    Si219    Si       0.03401    0.57917    0.57958    1.000
    N220     N        0.99515    0.59073    0.56107    1.000
    N221     N        0.04417    0.52805    0.52061    1.000
    N222     N        0.04394    0.53717    0.58919    1.000
    N223     N        0.02859    0.59412    0.61953    1.000
    N224     N        0.99659    0.70496    0.51404    1.000
    N225     N        0.01248    0.65724    0.58689    1.000
    Si226    Si       0.02460    0.67210    0.50723    1.000
    Si227    Si       0.03418    0.75567    0.56001    1.000
    N228     N        0.98932    0.63928    0.51763    1.000
    Si229    Si       0.03941    0.60768    0.72416    1.000
    N230     N        0.00196    0.59439    0.74247    1.000
    N231     N        0.01753    0.51318    0.64829    1.000
    Si232    Si       0.99211    0.66373    0.62578    1.000
    Si233    Si       0.00577    0.67655    0.70122    1.000
    N234     N        0.01349    0.71757    0.71447    1.000
    Si235    Si       0.99024    0.75189    0.70192    1.000
    N236     N        0.01688    0.67828    0.65819    1.000
    N237     N        0.03741    0.65074    0.71697    1.000
    N238     N        0.05117    0.73806    0.63084    1.000
    N239     N        0.03192    0.55685    0.79833    1.000
    Si240    Si       0.02652    0.52844    0.83234    1.000
    N241     N        0.01331    0.62315    0.80639    1.000
    Si242    Si       0.00097    0.58772    0.78437    1.000
    N243     N        0.02412    0.55057    0.87004    1.000
    N244     N        0.01241    0.73864    0.84879    1.000
    N245     N        0.00547    0.71421    0.78061    1.000
    Si246    Si       0.01857    0.70330    0.82395    1.000
    Si247    Si       0.03558    0.72092    0.75127    1.000
    Si248    Si       0.04535    0.63689    0.83135    1.000
    N249     N        0.98785    0.67734    0.84036    1.000
    N250     N        0.03308    0.63220    0.87396    1.000
    N251     N        0.01616    0.52843    0.93626    1.000
    Si252    Si       0.02153    0.56422    0.90928    1.000
    N253     N        0.01824    0.59479    0.98207    1.000
    N254     N        0.99216    0.59689    0.91858    1.000
    Si255    Si       0.99217    0.63110    0.88955    1.000
    N256     N        0.01506    0.69594    0.97533    1.000
    Si257    Si       0.03409    0.74334    0.88741    1.000
    N258     N        0.01017    0.73113    0.92396    1.000
    Si259    Si       0.03671    0.73909    0.96356    1.000
    N260     N        0.01454    0.83224    0.00681    1.000
    N261     N        0.00449    0.76825    0.03469    1.000
    N262     N        0.03660    0.87735    0.05390    1.000
    Si263    Si       0.99709    0.86944    0.07661    1.000
    N264     N        0.01641    0.86910    0.11684    1.000
    Si265    Si       0.04879    0.76540    0.04124    1.000
    N266     N        0.02607    0.93944    0.08625    1.000
    N267     N        0.00411    0.94083    0.01643    1.000
    Si268    Si       0.00317    0.96045    0.05571    1.000
    N269     N        0.02148    0.00088    0.04762    1.000
    N270     N        0.03383    0.87045    0.17758    1.000
    N271     N        0.00195    0.80297    0.17583    1.000
    Si272    Si       0.03768    0.82593    0.17978    1.000
    N273     N        0.00139    0.85369    0.24265    1.000
    Si274    Si       0.99426    0.75875    0.17668    1.000
    Si275    Si       0.99739    0.88151    0.15317    1.000
    Si276    Si       0.03203    0.94016    0.12962    1.000
    N277     N        0.03188    0.00045    0.23840    1.000
    N278     N        0.00212    0.92405    0.15664    1.000
    N279     N        0.99440    0.99001    0.17595    1.000
    N280     N        0.00587    0.82277    0.31792    1.000
    Si281    Si       0.99873    0.86486    0.32940    1.000
    N282     N        0.99989    0.78899    0.25877    1.000
    N283     N        0.03599    0.87513    0.35297    1.000
    Si284    Si       0.02796    0.81967    0.24965    1.000
    Si285    Si       0.99891    0.97624    0.25237    1.000
    N286     N        0.01907    0.95586    0.28729    1.000
    N287     N        0.00648    0.93468    0.35328    1.000
    N288     N        0.99537    0.89472    0.29668    1.000
    Si289    Si       0.99859    0.89932    0.25001    1.000
    Si290    Si       0.99061    0.93501    0.31373    1.000
    N291     N        0.04116    0.90872    0.24355    1.000
    Si292    Si       0.04565    0.91668    0.34913    1.000
    N293     N        0.01250    0.84649    0.41896    1.000
    Si294    Si       0.99796    0.99282    0.41957    1.000
    Si295    Si       0.99265    0.92647    0.46761    1.000
    N296     N        0.00941    0.93782    0.42965    1.000
    N297     N        0.03939    0.99188    0.41106    1.000
    N298     N        0.03465    0.76665    0.51784    1.000
    N299     N        0.00643    0.82725    0.50941    1.000
    Si300    Si       0.03479    0.87608    0.58874    1.000
    Si301    Si       0.01612    0.87079    0.50886    1.000
    N302     N        0.00163    0.86949    0.61567    1.000
    Si303    Si       0.04259    0.80420    0.49971    1.000
    N304     N        0.00024    0.76201    0.58626    1.000
    N305     N        0.02630    0.88952    0.54615    1.000
    N306     N        0.03463    0.96525    0.56616    1.000
    Si307    Si       0.01515    0.93270    0.54146    1.000
    Si308    Si       0.00744    0.00112    0.56844    1.000
    N309     N        0.02111    0.94035    0.49889    1.000
    N310     N        0.99657    0.85857    0.72705    1.000
    N311     N        0.02628    0.80447    0.62946    1.000
    N312     N        0.01157    0.78956    0.70968    1.000
    Si313    Si       0.01435    0.76235    0.62869    1.000
    Si314    Si       0.99104    0.82893    0.62804    1.000
    N315     N        0.03150    0.96036    0.65146    1.000
    Si316    Si       0.03696    0.98659    0.68435    1.000
    N317     N        0.00085    0.96944    0.70493    1.000
    Si318    Si       0.02552    0.80648    0.85007    1.000
    Si319    Si       0.01686    0.85602    0.76443    1.000
    N320     N        0.02277    0.84826    0.86087    1.000
    N321     N        0.99022    0.86715    0.79903    1.000
    Si322    Si       0.99188    0.87243    0.84250    1.000
    Si323    Si       0.00652    0.91396    0.79381    1.000
    N324     N        0.02338    0.95501    0.79012    1.000
    N325     N        0.01462    0.90987    0.83762    1.000
    Si326    Si       0.00716    0.96917    0.74937    1.000
    N327     N        0.03913    0.89243    0.77229    1.000
    Si328    Si       0.04769    0.91946    0.86446    1.000
    Si329    Si       0.03517    0.86558    0.89800    1.000
    Si330    Si       0.01670    0.82451    0.96555    1.000
    N331     N        0.03515    0.78505    0.95728    1.000
    N332     N        0.04091    0.78721    0.88719    1.000
    N333     N        0.04566    0.84739    0.93572    1.000
    Si334    Si       0.00224    0.93121    0.92566    1.000
    Si335    Si       0.03546    0.94654    0.98791    1.000
    N336     N        0.01774    0.96480    0.95248    1.000
    N337     N        0.00180    0.89167    0.90576    1.000
    N338     N        0.04041    0.94560    0.89900    1.000
    Si339    Si       0.07471    0.06084    0.07630    1.000
    N340     N        0.08367    0.03014    0.04541    1.000
    N341     N        0.09575    0.09942    0.08014    1.000
    N342     N        0.07591    0.11687    0.00589    1.000
    N343     N        0.08425    0.04056    0.11339    1.000
    Si344    Si       0.09667    0.12538    0.04409    1.000
    Si345    Si       0.05227    0.01450    0.01890    1.000
    N346     N        0.09074    0.16543    0.06015    1.000
    N347     N        0.10406    0.20648    0.11396    1.000
    Si348    Si       0.04981    0.17474    0.06838    1.000
    Si349    Si       0.08688    0.04396    0.19278    1.000
    N350     N        0.09572    0.08617    0.19983    1.000
    N351     N        0.08765    0.03763    0.23812    1.000
    Si352    Si       0.05331    0.01768    0.13522    1.000
    N353     N        0.04920    0.03210    0.17553    1.000
    Si354    Si       0.10712    0.07617    0.24289    1.000
    Si355    Si       0.09932    0.24918    0.12362    1.000
    Si356    Si       0.06681    0.23726    0.18912    1.000
    Si357    Si       0.07752    0.17667    0.13370    1.000
    N358     N        0.07295    0.20036    0.16866    1.000
    N359     N        0.08439    0.15128    0.21627    1.000
    N360     N        0.09600    0.13816    0.14665    1.000
    Si361    Si       0.05130    0.17456    0.19695    1.000
    Si362    Si       0.09373    0.10503    0.31456    1.000
    N363     N        0.05775    0.12034    0.33448    1.000
    Si364    Si       0.07948    0.02544    0.33170    1.000
    N365     N        0.09163    0.10531    0.27116    1.000
    Si366    Si       0.05158    0.02861    0.26528    1.000
    N367     N        0.09442    0.06405    0.32217    1.000
    N368     N        0.09729    0.22194    0.26351    1.000
    N369     N        0.05971    0.16639    0.27910    1.000
    N370     N        0.08526    0.22821    0.33229    1.000
    Si371    Si       0.09380    0.14567    0.25921    1.000
    Si372    Si       0.05576    0.20703    0.26059    1.000
    N373     N        0.09684    0.01373    0.37134    1.000
    N374     N        0.09530    0.04538    0.48066    1.000
    Si375    Si       0.05537    0.02556    0.38703    1.000
    N376     N        0.10177    0.11565    0.39257    1.000
    N377     N        0.06446    0.09825    0.45292    1.000
    Si378    Si       0.10062    0.09251    0.43082    1.000
    Si379    Si       0.06040    0.10988    0.37833    1.000
    Si380    Si       0.06022    0.07225    0.48879    1.000
    N381     N        0.08899    0.17562    0.46672    1.000
    Si382    Si       0.05385    0.17226    0.49196    1.000
    N383     N        0.06327    0.26033    0.39024    1.000
    N384     N        0.09402    0.06779    0.58979    1.000
    Si385    Si       0.05856    0.05354    0.56815    1.000
    N386     N        0.05610    0.08127    0.53276    1.000
    N387     N        0.08233    0.01931    0.55237    1.000
    Si388    Si       0.10144    0.10952    0.59849    1.000
    N389     N        0.06544    0.13037    0.58728    1.000
    Si390    Si       0.09145    0.01427    0.51108    1.000
    Si391    Si       0.04817    0.12201    0.54911    1.000
    N392     N        0.06997    0.15326    0.52746    1.000
    N393     N        0.07327    0.24525    0.54039    1.000
    N394     N        0.08391    0.25220    0.60946    1.000
    Si395    Si       0.04737    0.24917    0.50515    1.000
    Si396    Si       0.09584    0.08127    0.73442    1.000
    N397     N        0.07901    0.08261    0.69241    1.000
    Si398    Si       0.08967    0.11814    0.67072    1.000
    N399     N        0.08146    0.25642    0.71870    1.000
    Si400    Si       0.07149    0.22060    0.63671    1.000
    N401     N        0.05841    0.18089    0.71601    1.000
    N402     N        0.10447    0.20653    0.66160    1.000
    N403     N        0.05745    0.13908    0.65334    1.000
    Si404    Si       0.09049    0.15713    0.73412    1.000
    Si405    Si       0.07961    0.21554    0.70090    1.000
    N406     N        0.04889    0.23392    0.67225    1.000
    N407     N        0.08199    0.10246    0.82327    1.000
    Si408    Si       0.06399    0.09742    0.78470    1.000
    N409     N        0.07185    0.05756    0.76483    1.000
    Si410    Si       0.07304    0.01533    0.77053    1.000
    Si411    Si       0.10093    0.07280    0.85176    1.000
    N412     N        0.07923    0.11757    0.75188    1.000
    Si413    Si       0.06687    0.13894    0.84122    1.000
    N414     N        0.08429    0.17947    0.84019    1.000
    Si415    Si       0.08533    0.19619    0.80204    1.000
    N416     N        0.10796    0.23316    0.79097    1.000
    Si417    Si       0.06765    0.25747    0.86625    1.000
    N418     N        0.06759    0.05918    0.87421    1.000
    N419     N        0.06059    0.12570    0.88580    1.000
    Si420    Si       0.05369    0.01753    0.88057    1.000
    Si421    Si       0.09800    0.12638    0.91138    1.000
    Si422    Si       0.08113    0.17888    0.97544    1.000
    Si423    Si       0.08530    0.19079    0.88076    1.000
    N424     N        0.07005    0.15331    0.94178    1.000
    N425     N        0.07858    0.22220    0.98423    1.000
    N426     N        0.09635    0.23140    0.88736    1.000
    N427     N        0.07032    0.27102    0.09909    1.000
    Si428    Si       0.06980    0.32764    0.03124    1.000
    N429     N        0.06322    0.33646    0.07409    1.000
    Si430    Si       0.07617    0.31342    0.10966    1.000
    Si431    Si       0.05964    0.37791    0.08342    1.000
    N432     N        0.05232    0.28569    0.02736    1.000
    N433     N        0.10862    0.33707    0.01045    1.000
    N434     N        0.09968    0.39333    0.08086    1.000
    N435     N        0.07067    0.49496    0.05701    1.000
    N436     N        0.08139    0.40648    0.00159    1.000
    N437     N        0.05970    0.32619    0.15024    1.000
    Si438    Si       0.06092    0.29620    0.18504    1.000
    Si439    Si       0.09616    0.34865    0.16157    1.000
    N440     N        0.07186    0.26789    0.22231    1.000
    N441     N        0.09238    0.26516    0.16397    1.000
    N442     N        0.10349    0.32276    0.19568    1.000
    Si443    Si       0.10233    0.42845    0.16588    1.000
    Si444    Si       0.07089    0.49121    0.14401    1.000
    Si445    Si       0.09609    0.41710    0.24121    1.000
    N446     N        0.06770    0.44815    0.14858    1.000
    N447     N        0.07851    0.42546    0.20483    1.000
    N448     N        0.07951    0.29570    0.33267    1.000
    N449     N        0.09652    0.30569    0.26420    1.000
    Si450    Si       0.07681    0.38089    0.28940    1.000
    Si451    Si       0.09071    0.26341    0.35808    1.000
    Si452    Si       0.05135    0.32743    0.34103    1.000
    N453     N        0.09871    0.37239    0.25194    1.000
    Si454    Si       0.05532    0.30112    0.24909    1.000
    Si455    Si       0.08791    0.41845    0.35273    1.000
    N456     N        0.07968    0.45507    0.32879    1.000
    N457     N        0.06376    0.41997    0.27303    1.000
    N458     N        0.10344    0.38942    0.32395    1.000
    N459     N        0.10344    0.50824    0.28654    1.000
    N460     N        0.06655    0.34788    0.37496    1.000
    Si461    Si       0.08187    0.26931    0.42868    1.000
    N462     N        0.08703    0.30971    0.43416    1.000
    Si463    Si       0.08866    0.34475    0.41128    1.000
    Si464    Si       0.05839    0.30960    0.47033    1.000
    N465     N        0.06792    0.37763    0.42924    1.000
    N466     N        0.05703    0.26734    0.46642    1.000
    Si467    Si       0.09033    0.46008    0.48509    1.000
    Si468    Si       0.10254    0.45530    0.41307    1.000
    N469     N        0.09823    0.43588    0.45118    1.000
    N470     N        0.10009    0.50353    0.46915    1.000
    N471     N        0.06488    0.39784    0.49402    1.000
    N472     N        0.06689    0.47855    0.40685    1.000
    Si473    Si       0.09270    0.39464    0.46095    1.000
    N474     N        0.04860    0.46097    0.49513    1.000
    N475     N        0.08225    0.32057    0.50709    1.000
    N476     N        0.05817    0.30400    0.58272    1.000
    Si477    Si       0.05231    0.31693    0.54136    1.000
    Si478    Si       0.05672    0.26107    0.57738    1.000
    Si479    Si       0.10325    0.45148    0.55317    1.000
    Si480    Si       0.07430    0.38678    0.53461    1.000
    N481     N        0.07206    0.42250    0.55663    1.000
    N482     N        0.08898    0.49187    0.56180    1.000
    Si483    Si       0.10521    0.31478    0.66385    1.000
    N484     N        0.05742    0.31553    0.72135    1.000
    N485     N        0.10058    0.35700    0.67542    1.000
    Si486    Si       0.07425    0.35599    0.71153    1.000
    N487     N        0.06412    0.30370    0.65707    1.000
    Si488    Si       0.08778    0.37868    0.64149    1.000
    Si489    Si       0.09728    0.29321    0.73332    1.000
    Si490    Si       0.04967    0.27937    0.69069    1.000
    Si491    Si       0.06754    0.48822    0.73212    1.000
    N492     N        0.08672    0.42110    0.65278    1.000
    N493     N        0.09587    0.46184    0.71132    1.000
    Si494    Si       0.05273    0.44713    0.64053    1.000
    N495     N        0.07662    0.48205    0.62824    1.000
    Si496    Si       0.08837    0.34760    0.78169    1.000
    Si497    Si       0.09123    0.27207    0.79796    1.000
    N498     N        0.09430    0.28092    0.84002    1.000
    N499     N        0.09977    0.37231    0.81549    1.000
    N500     N        0.10030    0.30701    0.77480    1.000
    N501     N        0.09892    0.36983    0.74540    1.000
    Si502    Si       0.05526    0.46615    0.85697    1.000
    Si503    Si       0.07657    0.39348    0.84449    1.000
    N504     N        0.08348    0.43691    0.84188    1.000
    N505     N        0.09227    0.49111    0.76591    1.000
    N506     N        0.05830    0.49975    0.82976    1.000
    Si507    Si       0.09382    0.50689    0.80623    1.000
    N508     N        0.07706    0.34288    0.93911    1.000
    Si509    Si       0.08551    0.30779    0.91777    1.000
    N510     N        0.05488    0.28706    0.89778    1.000
    Si511    Si       0.09211    0.38051    0.92562    1.000
    Si512    Si       0.07288    0.43630    0.96911    1.000
    N513     N        0.06402    0.40970    0.93638    1.000
    Si514    Si       0.04859    0.49769    0.93419    1.000
    N515     N        0.10274    0.38888    0.88392    1.000
    N516     N        0.05585    0.47763    0.89832    1.000
    Si517    Si       0.08258    0.58776    0.10019    1.000
    Si518    Si       0.08457    0.53206    0.03451    1.000
    N519     N        0.06542    0.62556    0.08555    1.000
    N520     N        0.08126    0.56219    0.06512    1.000
    Si521    Si       0.08384    0.66369    0.09386    1.000
    N522     N        0.09108    0.68119    0.05569    1.000
    Si523    Si       0.09717    0.72522    0.06519    1.000
    N524     N        0.05846    0.74154    0.07593    1.000
    N525     N        0.05804    0.74253    0.00515    1.000
    Si526    Si       0.10179    0.66183    0.02054    1.000
    N527     N        0.06602    0.65065    0.99651    1.000
    N528     N        0.06272    0.69038    0.12075    1.000
    Si529    Si       0.05020    0.52481    0.20366    1.000
    N530     N        0.08260    0.52046    0.17461    1.000
    N531     N        0.06219    0.58031    0.13808    1.000
    Si532    Si       0.07978    0.59796    0.17535    1.000
    N533     N        0.05878    0.54308    0.24410    1.000
    N534     N        0.07849    0.70152    0.19085    1.000
    Si535    Si       0.05014    0.71317    0.22154    1.000
    N536     N        0.08968    0.63885    0.16085    1.000
    Si537    Si       0.06402    0.67447    0.16069    1.000
    N538     N        0.06819    0.58513    0.35308    1.000
    Si539    Si       0.06025    0.51862    0.28013    1.000
    N540     N        0.09550    0.60761    0.25219    1.000
    Si541    Si       0.05842    0.58710    0.24860    1.000
    Si542    Si       0.10441    0.60625    0.34263    1.000
    N543     N        0.09161    0.63837    0.31538    1.000
    Si544    Si       0.07572    0.73934    0.28949    1.000
    Si545    Si       0.07043    0.67324    0.33008    1.000
    N546     N        0.09059    0.69904    0.35975    1.000
    N547     N        0.05446    0.70250    0.30206    1.000
    N548     N        0.07192    0.74611    0.24513    1.000
    Si549    Si       0.07448    0.51282    0.43259    1.000
    Si550    Si       0.09864    0.60455    0.45236    1.000
    N551     N        0.07445    0.61786    0.41946    1.000
    N552     N        0.08488    0.57543    0.48069    1.000
    N553     N        0.08861    0.55054    0.41291    1.000
    Si554    Si       0.06432    0.58247    0.39627    1.000
    Si555    Si       0.05287    0.69244    0.38507    1.000
    N556     N        0.08643    0.64267    0.47418    1.000
    N557     N        0.05336    0.70983    0.49213    1.000
    Si558    Si       0.06043    0.72324    0.45096    1.000
    N559     N        0.06332    0.68894    0.42680    1.000
    N560     N        0.09363    0.75194    0.45328    1.000
    Si561    Si       0.05745    0.64991    0.44418    1.000
    N562     N        0.06328    0.58851    0.54823    1.000
    Si563    Si       0.05222    0.56996    0.50963    1.000
    Si564    Si       0.09392    0.64935    0.51803    1.000
    Si565    Si       0.07888    0.73782    0.59797    1.000
    Si566    Si       0.08257    0.71741    0.52634    1.000
    N567     N        0.05937    0.71832    0.56555    1.000
    N568     N        0.07178    0.67591    0.61648    1.000
    N569     N        0.05291    0.65965    0.53668    1.000
    N570     N        0.10472    0.75567    0.51931    1.000
    Si571    Si       0.04950    0.67771    0.57863    1.000
    N572     N        0.09944    0.61480    0.64047    1.000
    Si573    Si       0.05700    0.52122    0.62865    1.000
    N574     N        0.05998    0.51460    0.69963    1.000
    Si575    Si       0.07921    0.55102    0.68855    1.000
    Si576    Si       0.06145    0.59545    0.64677    1.000
    N577     N        0.08283    0.55367    0.64337    1.000
    N578     N        0.05315    0.58881    0.68751    1.000
    N579     N        0.08177    0.69797    0.68567    1.000
    Si580    Si       0.07581    0.67078    0.72024    1.000
    Si581    Si       0.05728    0.69769    0.64882    1.000
    Si582    Si       0.10814    0.65592    0.62946    1.000
    Si583    Si       0.06870    0.57798    0.79423    1.000
    N584     N        0.07726    0.61107    0.82382    1.000
    N585     N        0.09799    0.54860    0.80029    1.000
    N586     N        0.06840    0.59525    0.75531    1.000
    N587     N        0.08662    0.73761    0.81794    1.000
    Si588    Si       0.08806    0.69726    0.79761    1.000
    N589     N        0.07200    0.69604    0.75659    1.000
    N590     N        0.05477    0.67871    0.82203    1.000
    Si591    Si       0.06524    0.61969    0.90016    1.000
    N592     N        0.09149    0.58701    0.97661    1.000
    Si593    Si       0.08963    0.56012    0.94098    1.000
    N594     N        0.05999    0.57976    0.91875    1.000
    N595     N        0.08437    0.51829    0.95082    1.000
    Si596    Si       0.05698    0.61354    0.97191    1.000
    N597     N        0.07064    0.71271    0.94932    1.000
    Si598    Si       0.05177    0.67636    0.96337    1.000
    N599     N        0.07750    0.73092    0.88653    1.000
    N600     N        0.05622    0.64094    0.93652    1.000
    Si601    Si       0.09881    0.73049    0.99310    1.000
    Si602    Si       0.10372    0.72893    0.92248    1.000
    N603     N        0.09450    0.85531    0.10291    1.000
    N604     N        0.06266    0.80837    0.05084    1.000
    Si605    Si       0.09615    0.81687    0.07723    1.000
    Si606    Si       0.05022    0.84494    0.02733    1.000
    N607     N        0.08181    0.85454    0.99784    1.000
    N608     N        0.11095    0.78723    0.10435    1.000
    N609     N        0.09496    0.91272    0.06253    1.000
    Si610    Si       0.05598    0.90844    0.07695    1.000
    N611     N        0.06393    0.97547    0.00062    1.000
    Si612    Si       0.05934    0.86500    0.13132    1.000
    Si613    Si       0.09999    0.79410    0.14706    1.000
    Si614    Si       0.08623    0.77999    0.22177    1.000
    N615     N        0.06724    0.82284    0.15033    1.000
    N616     N        0.08943    0.86650    0.21991    1.000
    N617     N        0.10096    0.76797    0.18218    1.000
    N618     N        0.05289    0.80953    0.21745    1.000
    N619     N        0.05602    0.97327    0.14310    1.000
    Si620    Si       0.05685    0.89279    0.20644    1.000
    Si621    Si       0.09585    0.92605    0.15149    1.000
    Si622    Si       0.10578    0.94506    0.21908    1.000
    N623     N        0.07818    0.92802    0.19051    1.000
    N624     N        0.06582    0.90938    0.12349    1.000
    N625     N        0.07600    0.82287    0.34840    1.000
    N626     N        0.05952    0.77033    0.31635    1.000
    Si627    Si       0.09518    0.84362    0.25690    1.000
    Si628    Si       0.07991    0.78205    0.35716    1.000
    N629     N        0.06007    0.83055    0.27646    1.000
    Si630    Si       0.07542    0.86037    0.36762    1.000
    Si631    Si       0.04876    0.81307    0.31442    1.000
    N632     N        0.06964    0.91772    0.31183    1.000
    N633     N        0.08807    0.95648    0.25722    1.000
    Si634    Si       0.05549    0.93594    0.27453    1.000
    N635     N        0.07811    0.00931    0.29175    1.000
    Si636    Si       0.10519    0.99884    0.25655    1.000
    N637     N        0.10846    0.88541    0.35438    1.000
    N638     N        0.05062    0.87113    0.48092    1.000
    N639     N        0.05626    0.81117    0.45823    1.000
    Si640    Si       0.08170    0.78748    0.43178    1.000
    N641     N        0.07973    0.85706    0.41130    1.000
    N642     N        0.06040    0.77765    0.39544    1.000
    Si643    Si       0.04916    0.85147    0.44204    1.000
    N644     N        0.05509    0.99985    0.49112    1.000
    Si645    Si       0.05255    0.95197    0.41842    1.000
    Si646    Si       0.06071    0.95568    0.49110    1.000
    N647     N        0.07867    0.94833    0.45220    1.000
    N648     N        0.06874    0.92988    0.38417    1.000
    N649     N        0.06784    0.77705    0.57882    1.000
    N650     N        0.07806    0.82268    0.52140    1.000
    N651     N        0.06753    0.84743    0.59570    1.000
    Si652    Si       0.06771    0.80754    0.61068    1.000
    Si653    Si       0.09338    0.78965    0.54496    1.000
    Si654    Si       0.08922    0.86096    0.49979    1.000
    Si655    Si       0.09186    0.87735    0.61878    1.000
    N656     N        0.08568    0.95561    0.52625    1.000
    Si657    Si       0.07731    0.97692    0.56439    1.000
    N658     N        0.09025    0.96912    0.60494    1.000
    N659     N        0.05919    0.90456    0.61033    1.000
    N660     N        0.10159    0.79290    0.63741    1.000
    N661     N        0.09204    0.80165    0.71188    1.000
    N662     N        0.09792    0.85692    0.65756    1.000
    Si663    Si       0.05159    0.79340    0.73090    1.000
    Si664    Si       0.10723    0.81809    0.67480    1.000
    Si665    Si       0.09947    0.96525    0.73423    1.000
    N666     N        0.08803    0.89048    0.71651    1.000
    N667     N        0.07767    0.97877    0.69777    1.000
    Si668    Si       0.06588    0.94320    0.63029    1.000
    N669     N        0.09812    0.92817    0.65865    1.000
    Si670    Si       0.07213    0.77039    0.79428    1.000
    Si671    Si       0.07479    0.83009    0.79169    1.000
    N672     N        0.05349    0.80252    0.81745    1.000
    N673     N        0.09985    0.86604    0.78453    1.000
    N674     N        0.05051    0.76077    0.75841    1.000
    N675     N        0.04831    0.82876    0.75723    1.000
    N676     N        0.10756    0.79712    0.78178    1.000
    Si677    Si       0.07934    0.89507    0.75710    1.000
    N678     N        0.07775    0.99270    0.80607    1.000
    N679     N        0.07857    0.92972    0.83452    1.000
    Si680    Si       0.06644    0.95167    0.79876    1.000
    N681     N        0.08809    0.93598    0.76566    1.000
    Si682    Si       0.05912    0.80424    0.92477    1.000
    Si683    Si       0.07162    0.87354    0.96046    1.000
    N684     N        0.10186    0.80805    0.92253    1.000
    N685     N        0.09998    0.97067    0.93931    1.000
    Si686    Si       0.05655    0.97194    0.92875    1.000
    N687     N        0.09210    0.99669    0.87675    1.000
    N688     N        0.07120    0.88748    0.88766    1.000
    Si689    Si       0.10246    0.96996    0.98398    1.000
    N690     N        0.05510    0.91154    0.96937    1.000
    N691     N        0.13333    0.10735    0.02532    1.000
    N692     N        0.15599    0.03937    0.05273    1.000
    Si693    Si       0.11845    0.11763    0.11301    1.000
    N694     N        0.15101    0.01169    0.11542    1.000
    Si695    Si       0.12423    0.01354    0.04133    1.000
    Si696    Si       0.16302    0.07626    0.02889    1.000
    N697     N        0.14449    0.14996    0.09700    1.000
    Si698    Si       0.12389    0.18553    0.08173    1.000
    N699     N        0.14026    0.21621    0.05633    1.000
    Si700    Si       0.15766    0.23990    0.02374    1.000
    Si701    Si       0.16222    0.24148    0.08705    1.000
    N702     N        0.11823    0.02797    0.16904    1.000
    Si703    Si       0.12553    0.04382    0.12909    1.000
    N704     N        0.14070    0.08284    0.12887    1.000
    N705     N        0.14965    0.12766    0.20076    1.000
    Si706    Si       0.10759    0.12541    0.18826    1.000
    Si707    Si       0.16423    0.16072    0.22621    1.000
    N708     N        0.15888    0.08787    0.36324    1.000
    N709     N        0.12554    0.13226    0.32928    1.000
    N710     N        0.14983    0.07197    0.24433    1.000
    Si711    Si       0.11925    0.22285    0.30170    1.000
    Si712    Si       0.15358    0.15514    0.30479    1.000
    N713     N        0.13764    0.15866    0.26141    1.000
    N714     N        0.15157    0.19847    0.31451    1.000
    Si715    Si       0.13711    0.12597    0.37070    1.000
    N716     N        0.16143    0.04054    0.47109    1.000
    Si717    Si       0.16067    0.05939    0.39490    1.000
    N718     N        0.12480    0.05711    0.41932    1.000
    N719     N        0.13149    0.10949    0.45623    1.000
    Si720    Si       0.12374    0.02728    0.45230    1.000
    Si721    Si       0.16362    0.08272    0.46115    1.000
    N722     N        0.11715    0.24211    0.43215    1.000
    Si723    Si       0.15003    0.25031    0.40465    1.000
    Si724    Si       0.12727    0.14996    0.46878    1.000
    N725     N        0.14995    0.18124    0.45023    1.000
    N726     N        0.15953    0.21268    0.38319    1.000
    Si727    Si       0.11699    0.20980    0.46204    1.000
    N728     N        0.14503    0.06457    0.53791    1.000
    Si729    Si       0.12355    0.04290    0.56844    1.000
    Si730    Si       0.15794    0.10828    0.53300    1.000
    Si731    Si       0.16057    0.03093    0.51401    1.000
    N732     N        0.13021    0.12808    0.56949    1.000
    N733     N        0.14868    0.01155    0.58587    1.000
    N734     N        0.13873    0.15436    0.51103    1.000
    N735     N        0.12002    0.19622    0.55934    1.000
    Si736    Si       0.11394    0.23498    0.53913    1.000
    N737     N        0.15300    0.23834    0.61127    1.000
    Si738    Si       0.15462    0.20470    0.58622    1.000
    N739     N        0.13118    0.22371    0.50075    1.000
    Si740    Si       0.11018    0.15673    0.54350    1.000
    Si741    Si       0.16168    0.19294    0.51348    1.000
    N742     N        0.14945    0.05544    0.66026    1.000
    N743     N        0.11856    0.11132    0.63877    1.000
    Si744    Si       0.15876    0.09408    0.65139    1.000
    N745     N        0.13791    0.06932    0.73765    1.000
    Si746    Si       0.14758    0.02650    0.74472    1.000
    N747     N        0.16088    0.24639    0.67614    1.000
    N748     N        0.11454    0.13979    0.69985    1.000
    Si749    Si       0.15751    0.14408    0.70483    1.000
    N750     N        0.11866    0.20136    0.72031    1.000
    Si751    Si       0.14227    0.20586    0.68329    1.000
    N752     N        0.15175    0.25592    0.74567    1.000
    N753     N        0.12323    0.03885    0.83348    1.000
    Si754    Si       0.15425    0.11348    0.85465    1.000
    Si755    Si       0.16487    0.04197    0.82327    1.000
    N756     N        0.14789    0.13644    0.81879    1.000
    Si757    Si       0.13243    0.21664    0.75874    1.000
    Si758    Si       0.14745    0.15529    0.78009    1.000
    N759     N        0.10672    0.17178    0.77373    1.000
    N760     N        0.12225    0.09749    0.88082    1.000
    Si761    Si       0.13867    0.07431    0.91864    1.000
    N762     N        0.13363    0.03300    0.93161    1.000
    Si763    Si       0.15405    0.02083    0.96994    1.000
    N764     N        0.11882    0.10366    0.94318    1.000
    Si765    Si       0.11653    0.11795    0.98461    1.000
    N766     N        0.16096    0.06220    0.98588    1.000
    Si767    Si       0.15134    0.18866    0.96979    1.000
    Si768    Si       0.13398    0.23469    0.90601    1.000
    N769     N        0.11722    0.16245    0.89818    1.000
    N770     N        0.13285    0.21958    0.94729    1.000
    N771     N        0.12214    0.16105    0.98330    1.000
    Si772    Si       0.16003    0.16956    0.89692    1.000
    Si773    Si       0.10993    0.24818    0.97096    1.000
    N774     N        0.16016    0.21053    0.87855    1.000
    Si775    Si       0.12469    0.37570    0.11250    1.000
    N776     N        0.13462    0.26915    0.00097    1.000
    N777     N        0.13752    0.26679    0.11105    1.000
    Si778    Si       0.14317    0.31261    0.99909    1.000
    Si779    Si       0.11631    0.37796    0.99845    1.000
    Si780    Si       0.10611    0.48621    0.07955    1.000
    N781     N        0.14869    0.39122    0.02625    1.000
    N782     N        0.16143    0.39199    0.09599    1.000
    N783     N        0.13279    0.45333    0.06565    1.000
    Si784    Si       0.13644    0.41040    0.06282    1.000
    N785     N        0.11498    0.33217    0.12154    1.000
    Si786    Si       0.14978    0.30626    0.12315    1.000
    N787     N        0.16032    0.33454    0.22830    1.000
    Si788    Si       0.11465    0.33508    0.23714    1.000
    Si789    Si       0.12474    0.28485    0.18655    1.000
    N790     N        0.16004    0.30225    0.16399    1.000
    N791     N        0.13823    0.26248    0.22126    1.000
    Si792    Si       0.15548    0.47460    0.23066    1.000
    N793     N        0.13258    0.43910    0.24557    1.000
    Si794    Si       0.14657    0.48297    0.14222    1.000
    N795     N        0.14251    0.44779    0.16949    1.000
    N796     N        0.10911    0.48765    0.12212    1.000
    N797     N        0.11193    0.38823    0.15264    1.000
    N798     N        0.13777    0.32960    0.32891    1.000
    Si799    Si       0.14431    0.37259    0.32399    1.000
    N800     N        0.13472    0.26537    0.29352    1.000
    Si801    Si       0.11274    0.30498    0.30532    1.000
    N802     N        0.15915    0.37875    0.28242    1.000
    Si803    Si       0.10928    0.26381    0.25317    1.000
    Si804    Si       0.14340    0.31602    0.36975    1.000
    N805     N        0.16547    0.49260    0.26754    1.000
    N806     N        0.15073    0.44375    0.31328    1.000
    Si807    Si       0.11507    0.47342    0.31404    1.000
    N808     N        0.13257    0.49779    0.34577    1.000
    Si809    Si       0.15908    0.42364    0.27593    1.000
    N810     N        0.12736    0.27678    0.37741    1.000
    N811     N        0.13095    0.34513    0.40045    1.000
    Si812    Si       0.15119    0.35841    0.43578    1.000
    N813     N        0.12235    0.36485    0.46594    1.000
    N814     N        0.13343    0.48565    0.41502    1.000
    Si815    Si       0.15827    0.41343    0.38738    1.000
    Si816    Si       0.14127    0.49928    0.45550    1.000
    N817     N        0.11661    0.42573    0.38479    1.000
    Si818    Si       0.15678    0.48843    0.37980    1.000
    N819     N        0.13391    0.26941    0.55978    1.000
    Si820    Si       0.12015    0.34261    0.50590    1.000
    Si821    Si       0.13885    0.37376    0.57254    1.000
    Si822    Si       0.12282    0.26727    0.60374    1.000
    N823     N        0.15586    0.31824    0.51211    1.000
    N824     N        0.11722    0.37074    0.61027    1.000
    N825     N        0.16065    0.33557    0.57801    1.000
    Si826    Si       0.16496    0.29944    0.55067    1.000
    N827     N        0.11402    0.37194    0.53828    1.000
    Si828    Si       0.14678    0.33941    0.61857    1.000
    N829     N        0.12130    0.45092    0.51374    1.000
    N830     N        0.13593    0.45221    0.58294    1.000
    Si831    Si       0.16157    0.46664    0.51496    1.000
    Si832    Si       0.11899    0.47685    0.61533    1.000
    N833     N        0.16109    0.50479    0.53638    1.000
    N834     N        0.12885    0.30142    0.62929    1.000
    N835     N        0.12507    0.30410    0.70188    1.000
    Si836    Si       0.14413    0.36750    0.68939    1.000
    Si837    Si       0.15717    0.27596    0.70730    1.000
    N838     N        0.16073    0.35786    0.72662    1.000
    N839     N        0.16541    0.35478    0.65420    1.000
    N840     N        0.13967    0.46146    0.65195    1.000
    N841     N        0.13575    0.40916    0.70343    1.000
    Si842    Si       0.12199    0.46563    0.74729    1.000
    N843     N        0.15817    0.47981    0.73326    1.000
    Si844    Si       0.11466    0.44006    0.67922    1.000
    N845     N        0.15126    0.33091    0.83364    1.000
    Si846    Si       0.13071    0.29743    0.85352    1.000
    Si847    Si       0.14217    0.37120    0.82344    1.000
    N848     N        0.16314    0.27087    0.83744    1.000
    N849     N        0.14805    0.41251    0.83712    1.000
    N850     N        0.12484    0.48340    0.82249    1.000
    N851     N        0.12994    0.43154    0.77559    1.000
    Si852    Si       0.11949    0.44140    0.81871    1.000
    Si853    Si       0.13594    0.39174    0.74652    1.000
    N854     N        0.12206    0.31285    0.89171    1.000
    Si855    Si       0.14671    0.29968    0.92661    1.000
    N856     N        0.16181    0.32279    0.95971    1.000
    N857     N        0.10951    0.28039    0.94166    1.000
    N858     N        0.16639    0.26431    0.90546    1.000
    Si859    Si       0.11568    0.49901    0.97358    1.000
    N860     N        0.12521    0.38940    0.95541    1.000
    N861     N        0.15260    0.43568    0.90929    1.000
    Si862    Si       0.14260    0.42958    0.95095    1.000
    N863     N        0.11307    0.45632    0.96660    1.000
    Si864    Si       0.14272    0.40425    0.88011    1.000
    Si865    Si       0.14373    0.54533    0.11027    1.000
    Si866    Si       0.15779    0.52700    0.03353    1.000
    N867     N        0.11972    0.51983    0.01211    1.000
    N868     N        0.14277    0.51728    0.07477    1.000
    Si869    Si       0.15046    0.61896    0.11338    1.000
    N870     N        0.13131    0.62996    0.01755    1.000
    N871     N        0.12482    0.58434    0.11248    1.000
    N872     N        0.12573    0.65791    0.10791    1.000
    N873     N        0.13352    0.72601    0.08885    1.000
    Si874    Si       0.15367    0.68717    0.08877    1.000
    N875     N        0.11422    0.74859    0.03168    1.000
    N876     N        0.16620    0.68127    0.04747    1.000
    Si877    Si       0.16384    0.70296    0.00956    1.000
    N878     N        0.16499    0.62622    0.22352    1.000
    N879     N        0.15276    0.52890    0.15174    1.000
    Si880    Si       0.13289    0.59666    0.23131    1.000
    Si881    Si       0.12093    0.53373    0.18433    1.000
    N882     N        0.11345    0.57708    0.19498    1.000
    N883     N        0.16125    0.63446    0.15362    1.000
    N884     N        0.13297    0.51028    0.21806    1.000
    Si885    Si       0.12784    0.66116    0.15284    1.000
    N886     N        0.14165    0.72824    0.22399    1.000
    N887     N        0.13548    0.70162    0.16061    1.000
    Si888    Si       0.11396    0.72618    0.18870    1.000
    N889     N        0.13029    0.57302    0.32794    1.000
    Si890    Si       0.15191    0.53722    0.34184    1.000
    Si891    Si       0.13503    0.52391    0.26106    1.000
    N892     N        0.14690    0.56565    0.25862    1.000
    N893     N        0.15160    0.62538    0.28572    1.000
    N894     N        0.13615    0.62637    0.36293    1.000
    Si895    Si       0.16166    0.58140    0.29646    1.000
    Si896    Si       0.14393    0.74750    0.32639    1.000
    Si897    Si       0.13531    0.71013    0.26180    1.000
    N898     N        0.11957    0.73609    0.29333    1.000
    N899     N        0.15996    0.71152    0.34469    1.000
    N900     N        0.11293    0.67378    0.25876    1.000
    Si901    Si       0.10978    0.63758    0.27843    1.000
    N902     N        0.14750    0.54156    0.46689    1.000
    N903     N        0.14048    0.60550    0.43809    1.000
    Si904    Si       0.14614    0.63403    0.40428    1.000
    Si905    Si       0.10837    0.53997    0.49137    1.000
    N906     N        0.14697    0.71508    0.47402    1.000
    Si907    Si       0.12995    0.70448    0.37770    1.000
    N908     N        0.14091    0.67522    0.40835    1.000
    N909     N        0.14859    0.73491    0.40740    1.000
    Si910    Si       0.16199    0.70386    0.43377    1.000
    Si911    Si       0.12806    0.75418    0.48118    1.000
    N912     N        0.12866    0.59091    0.58822    1.000
    N913     N        0.12373    0.61916    0.52927    1.000
    Si914    Si       0.15411    0.62520    0.58489    1.000
    N915     N        0.13539    0.51630    0.60231    1.000
    Si916    Si       0.12575    0.51727    0.56139    1.000
    N917     N        0.11360    0.54720    0.53354    1.000
    Si918    Si       0.16644    0.62011    0.51900    1.000
    Si919    Si       0.10642    0.58495    0.55006    1.000
    N920     N        0.12162    0.73234    0.60273    1.000
    N921     N        0.13044    0.66189    0.59152    1.000
    Si922    Si       0.14750    0.70046    0.58599    1.000
    Si923    Si       0.15216    0.69505    0.51220    1.000
    N924     N        0.11187    0.68783    0.52395    1.000
    N925     N        0.16610    0.71258    0.54865    1.000
    Si926    Si       0.11875    0.57647    0.62848    1.000
    Si927    Si       0.15619    0.57245    0.69389    1.000
    N928     N        0.11502    0.56637    0.70883    1.000
    N929     N        0.15781    0.56401    0.64707    1.000
    Si930    Si       0.10853    0.59978    0.73860    1.000
    N931     N        0.13578    0.66868    0.65911    1.000
    N932     N        0.14634    0.69537    0.71614    1.000
    Si933    Si       0.14030    0.65252    0.70058    1.000
    N934     N        0.14032    0.74660    0.66732    1.000
    Si935    Si       0.12547    0.70946    0.68139    1.000
    N936     N        0.10422    0.63931    0.72159    1.000
    Si937    Si       0.13766    0.56182    0.79903    1.000
    N938     N        0.13688    0.59568    0.77143    1.000
    N939     N        0.14043    0.57579    0.84135    1.000
    Si940    Si       0.11627    0.61140    0.84492    1.000
    N941     N        0.16275    0.52897    0.78305    1.000
    Si942    Si       0.16430    0.62352    0.79120    1.000
    N943     N        0.14743    0.63906    0.82809    1.000
    N944     N        0.13093    0.69212    0.79007    1.000
    N945     N        0.13752    0.70978    0.85665    1.000
    Si946    Si       0.15334    0.68319    0.82819    1.000
    Si947    Si       0.15772    0.69411    0.75621    1.000
    Si948    Si       0.10861    0.74647    0.85629    1.000
    N949     N        0.12867    0.56636    0.92592    1.000
    Si950    Si       0.13736    0.60934    0.91301    1.000
    Si951    Si       0.13152    0.60250    0.97951    1.000
    N952     N        0.13821    0.63337    0.94968    1.000
    N953     N        0.15667    0.50925    0.95846    1.000
    N954     N        0.10544    0.62157    0.88468    1.000
    Si955    Si       0.14728    0.67409    0.95779    1.000
    N956     N        0.13477    0.75545    0.89854    1.000
    N957     N        0.13538    0.69655    0.92171    1.000
    N958     N        0.11666    0.75208    0.96097    1.000
    N959     N        0.12231    0.69182    0.99304    1.000
    Si960    Si       0.15896    0.72000    0.89275    1.000
    N961     N        0.12307    0.84095    0.04901    1.000
    Si962    Si       0.14833    0.77577    0.02417    1.000
    Si963    Si       0.14871    0.76612    0.09519    1.000
    Si964    Si       0.12304    0.84627    0.00616    1.000
    Si965    Si       0.12045    0.87698    0.07276    1.000
    N966     N        0.15708    0.86354    0.09764    1.000
    N967     N        0.16300    0.79082    0.06119    1.000
    Si968    Si       0.16676    0.83539    0.06356    1.000
    Si969    Si       0.14519    0.96924    0.10370    1.000
    N970     N        0.12830    0.97385    0.06456    1.000
    Si971    Si       0.12669    0.93645    0.04325    1.000
    N972     N        0.15834    0.90564    0.05289    1.000
    N973     N        0.12455    0.93526    0.00016    1.000
    N974     N        0.12610    0.00359    0.00008    1.000
    N975     N        0.15797    0.85338    0.20700    1.000
    Si976    Si       0.15512    0.81480    0.22560    1.000
    N977     N        0.13457    0.82194    0.15206    1.000
    Si978    Si       0.12974    0.85862    0.13114    1.000
    N979     N        0.11502    0.80588    0.24026    1.000
    Si980    Si       0.12678    0.88093    0.19919    1.000
    N981     N        0.12013    0.89154    0.15795    1.000
    Si982    Si       0.13607    0.98843    0.16913    1.000
    N983     N        0.12445    0.98333    0.21536    1.000
    N984     N        0.13778    0.91540    0.22318    1.000
    N985     N        0.12098    0.95929    0.14101    1.000
    N986     N        0.12087    0.86380    0.28626    1.000
    N987     N        0.12049    0.76685    0.35803    1.000
    Si988    Si       0.16208    0.84733    0.28919    1.000
    N989     N        0.13984    0.92705    0.29478    1.000
    N990     N        0.14370    0.00226    0.27659    1.000
    Si991    Si       0.11138    0.89747    0.31113    1.000
    Si992    Si       0.16108    0.91300    0.25838    1.000
    N993     N        0.13620    0.95588    0.36935    1.000
    Si994    Si       0.16211    0.96326    0.29291    1.000
    N995     N        0.11796    0.80268    0.41896    1.000
    N996     N        0.11878    0.86163    0.46836    1.000
    Si997    Si       0.14081    0.77657    0.39572    1.000
    Si998    Si       0.12297    0.84621    0.42814    1.000
    N999     N        0.16111    0.78393    0.47830    1.000
    N1000    N        0.16513    0.85441    0.42127    1.000
    Si1001   Si       0.11177    0.92063    0.37902    1.000
    Si1002   Si       0.13335    0.99488    0.38951    1.000
    Si1003   Si       0.12179    0.94465    0.44846    1.000
    Si1004   Si       0.14622    0.88832    0.49319    1.000
    N1005    N        0.12811    0.98907    0.43253    1.000
    N1006    N        0.13753    0.93118    0.48683    1.000
    N1007    N        0.12974    0.91230    0.41796    1.000
    N1008    N        0.12561    0.81000    0.56465    1.000
    Si1009   Si       0.12973    0.85304    0.56152    1.000
    N1010    N        0.12050    0.87770    0.52701    1.000
    N1011    N        0.12741    0.88344    0.59466    1.000
    Si1012   Si       0.12947    0.95580    0.52332    1.000
    N1013    N        0.13837    0.94788    0.56579    1.000
    Si1014   Si       0.13634    0.97343    0.60822    1.000
    Si1015   Si       0.15552    0.91450    0.58602    1.000
    N1016    N        0.13211    0.99722    0.51106    1.000
    N1017    N        0.15726    0.77046    0.73330    1.000
    Si1018   Si       0.13426    0.76354    0.62881    1.000
    N1019    N        0.15027    0.81639    0.68261    1.000
    Si1020   Si       0.12696    0.80140    0.74067    1.000
    Si1021   Si       0.16599    0.77495    0.69065    1.000
    Si1022   Si       0.11221    0.89359    0.68092    1.000
    N1023    N        0.15492    0.88738    0.67571    1.000
    N1024    N        0.14016    0.98686    0.64965    1.000
    Si1025   Si       0.11318    0.96422    0.67550    1.000
    N1026    N        0.13249    0.94943    0.71161    1.000
    Si1027   Si       0.13989    0.79613    0.81090    1.000
    Si1028   Si       0.14254    0.86432    0.78785    1.000
    N1029    N        0.12223    0.78805    0.84899    1.000
    Si1030   Si       0.16226    0.86493    0.84928    1.000
    N1031    N        0.15069    0.83816    0.74959    1.000
    N1032    N        0.16241    0.83483    0.81637    1.000
    N1033    N        0.14604    0.89833    0.82601    1.000
    Si1034   Si       0.11960    0.92563    0.84585    1.000
    N1035    N        0.13752    0.96445    0.83272    1.000
    Si1036   Si       0.10871    0.99763    0.83682    1.000
    N1037    N        0.11025    0.00333    0.75125    1.000
    N1038    N        0.13574    0.84874    0.87976    1.000
    Si1039   Si       0.13415    0.80245    0.89269    1.000
    Si1040   Si       0.12781    0.79272    0.95451    1.000
    N1041    N        0.16279    0.80481    0.92898    1.000
    N1042    N        0.15488    0.87430    0.99501    1.000
    N1043    N        0.13380    0.80419    0.99632    1.000
    Si1044   Si       0.11152    0.88161    0.89953    1.000
    N1045    N        0.11133    0.88122    0.94365    1.000
    Si1046   Si       0.16172    0.94035    0.91066    1.000
    Si1047   Si       0.11983    0.99758    0.91101    1.000
    Si1048   Si       0.13764    0.90595    0.96967    1.000
    N1049    N        0.15559    0.98066    0.89689    1.000
    N1050    N        0.13206    0.91795    0.88820    1.000
    N1051    N        0.19731    0.09782    0.04273    1.000
    N1052    N        0.19916    0.06492    0.10706    1.000
    Si1053   Si       0.18050    0.02941    0.08872    1.000
    Si1054   Si       0.22039    0.12712    0.02060    1.000
    Si1055   Si       0.22232    0.08358    0.07626    1.000
    N1056    N        0.18111    0.20910    0.11058    1.000
    Si1057   Si       0.21665    0.19765    0.01071    1.000
    N1058    N        0.17444    0.20832    0.00120    1.000
    Si1059   Si       0.18537    0.16311    0.11215    1.000
    N1060    N        0.18630    0.01892    0.23170    1.000
    Si1061   Si       0.20761    0.04318    0.20210    1.000
    N1062    N        0.18430    0.07287    0.17911    1.000
    Si1063   Si       0.18246    0.08778    0.14001    1.000
    Si1064   Si       0.17881    0.09663    0.21890    1.000
    N1065    N        0.21690    0.07467    0.23127    1.000
    N1066    N        0.19736    0.12849    0.13944    1.000
    Si1067   Si       0.17631    0.24255    0.22232    1.000
    N1068    N        0.18129    0.20060    0.21316    1.000
    Si1069   Si       0.22282    0.20403    0.19718    1.000
    N1070    N        0.19593    0.13300    0.24112    1.000
    N1071    N        0.18864    0.05498    0.30413    1.000
    Si1072   Si       0.18482    0.09004    0.32952    1.000
    N1073    N        0.18816    0.12970    0.30850    1.000
    Si1074   Si       0.16859    0.03855    0.26774    1.000
    N1075    N        0.22417    0.07811    0.34904    1.000
    Si1076   Si       0.21848    0.13601    0.27906    1.000
    Si1077   Si       0.17953    0.21550    0.34543    1.000
    N1078    N        0.19324    0.23962    0.26279    1.000
    N1079    N        0.21653    0.19390    0.34600    1.000
    N1080    N        0.19175    0.25722    0.33665    1.000
    N1081    N        0.18833    0.08118    0.42291    1.000
    Si1082   Si       0.19940    0.12180    0.41340    1.000
    N1083    N        0.21832    0.13046    0.45063    1.000
    N1084    N        0.17001    0.01940    0.38085    1.000
    Si1085   Si       0.22271    0.10395    0.48501    1.000
    N1086    N        0.20301    0.18604    0.49645    1.000
    N1087    N        0.18983    0.25906    0.41970    1.000
    Si1088   Si       0.17094    0.18270    0.41206    1.000
    N1089    N        0.21123    0.19217    0.42550    1.000
    N1090    N        0.16608    0.14396    0.39617    1.000
    N1091    N        0.19802    0.02066    0.53041    1.000
    N1092    N        0.20752    0.04816    0.59304    1.000
    Si1093   Si       0.19166    0.01467    0.57427    1.000
    N1094    N        0.18109    0.10515    0.61660    1.000
    N1095    N        0.19175    0.12893    0.55366    1.000
    Si1096   Si       0.22065    0.08783    0.60660    1.000
    N1097    N        0.18244    0.09834    0.49779    1.000
    Si1098   Si       0.16834    0.13535    0.59062    1.000
    N1099    N        0.18151    0.20724    0.55026    1.000
    N1100    N        0.17165    0.17242    0.61118    1.000
    Si1101   Si       0.22225    0.20149    0.53414    1.000
    Si1102   Si       0.17458    0.09328    0.73190    1.000
    N1103    N        0.20797    0.01699    0.65745    1.000
    N1104    N        0.17934    0.11113    0.68657    1.000
    Si1105   Si       0.22223    0.12110    0.67268    1.000
    Si1106   Si       0.16533    0.01665    0.66737    1.000
    N1107    N        0.20881    0.07309    0.74669    1.000
    Si1108   Si       0.18135    0.25437    0.63836    1.000
    Si1109   Si       0.19929    0.18253    0.64334    1.000
    N1110    N        0.21390    0.22349    0.63552    1.000
    N1111    N        0.17250    0.17618    0.67850    1.000
    N1112    N        0.16369    0.13453    0.74599    1.000
    N1113    N        0.17741    0.07824    0.84275    1.000
    N1114    N        0.17066    0.02752    0.78122    1.000
    Si1115   Si       0.21167    0.04004    0.77441    1.000
    Si1116   Si       0.21913    0.08644    0.82945    1.000
    N1117    N        0.21973    0.12116    0.80611    1.000
    Si1118   Si       0.21067    0.20234    0.77415    1.000
    N1119    N        0.16804    0.19464    0.77210    1.000
    N1120    N        0.22229    0.24374    0.76523    1.000
    Si1121   Si       0.18283    0.24575    0.86785    1.000
    N1122    N        0.18452    0.08322    0.92246    1.000
    Si1123   Si       0.21118    0.10922    0.89684    1.000
    Si1124   Si       0.19435    0.08080    0.96514    1.000
    N1125    N        0.20030    0.12239    0.98165    1.000
    N1126    N        0.18251    0.13715    0.87848    1.000
    Si1127   Si       0.21131    0.15267    0.95383    1.000
    N1128    N        0.17395    0.16905    0.93794    1.000
    Si1129   Si       0.19470    0.31026    0.05650    1.000
    Si1130   Si       0.18734    0.37076    0.02468    1.000
    N1131    N        0.17915    0.32386    0.09633    1.000
    Si1132   Si       0.19478    0.36367    0.09501    1.000
    N1133    N        0.17805    0.32632    0.02168    1.000
    N1134    N        0.21794    0.36065    0.05712    1.000
    N1135    N        0.18400    0.26357    0.05386    1.000
    N1136    N        0.18660    0.49210    0.03540    1.000
    N1137    N        0.18121    0.47832    0.11331    1.000
    Si1138   Si       0.16866    0.47769    0.07224    1.000
    N1139    N        0.20264    0.27234    0.20587    1.000
    Si1140   Si       0.18496    0.31368    0.19834    1.000
    N1141    N        0.22220    0.33527    0.18963    1.000
    Si1142   Si       0.18008    0.36998    0.24261    1.000
    Si1143   Si       0.18086    0.43310    0.18477    1.000
    Si1144   Si       0.22072    0.46079    0.12205    1.000
    N1145    N        0.21396    0.43524    0.15729    1.000
    N1146    N        0.19365    0.46730    0.21071    1.000
    N1147    N        0.17874    0.40075    0.21337    1.000
    Si1148   Si       0.21008    0.30371    0.34035    1.000
    N1149    N        0.20319    0.30223    0.29524    1.000
    Si1150   Si       0.17968    0.26402    0.29631    1.000
    Si1151   Si       0.21116    0.38204    0.35825    1.000
    N1152    N        0.22092    0.35884    0.25431    1.000
    N1153    N        0.22083    0.34993    0.33197    1.000
    N1154    N        0.17804    0.45195    0.37341    1.000
    N1155    N        0.16966    0.38600    0.35604    1.000
    N1156    N        0.20041    0.42993    0.27945    1.000
    Si1157   Si       0.19015    0.44711    0.33127    1.000
    N1158    N        0.21574    0.47869    0.31705    1.000
    Si1159   Si       0.20006    0.50695    0.28732    1.000
    N1160    N        0.18649    0.31479    0.37652    1.000
    N1161    N        0.17391    0.32570    0.44943    1.000
    N1162    N        0.21634    0.36873    0.47044    1.000
    Si1163   Si       0.19277    0.30272    0.41961    1.000
    Si1164   Si       0.19311    0.33338    0.49059    1.000
    N1165    N        0.22400    0.30019    0.49090    1.000
    N1166    N        0.16975    0.39800    0.42681    1.000
    Si1167   Si       0.21209    0.39760    0.43695    1.000
    N1168    N        0.17176    0.47353    0.47165    1.000
    Si1169   Si       0.21314    0.47456    0.45650    1.000
    N1170    N        0.20500    0.29089    0.56487    1.000
    Si1171   Si       0.20049    0.35894    0.57058    1.000
    N1172    N        0.21268    0.35181    0.52931    1.000
    Si1173   Si       0.22711    0.30163    0.60211    1.000
    N1174    N        0.19056    0.44454    0.53694    1.000
    Si1175   Si       0.17570    0.43603    0.57670    1.000
    N1176    N        0.19826    0.44269    0.61256    1.000
    N1177    N        0.17569    0.39452    0.57378    1.000
    N1178    N        0.20851    0.28979    0.64037    1.000
    N1179    N        0.19880    0.28804    0.71341    1.000
    Si1180   Si       0.18371    0.46000    0.64859    1.000
    Si1181   Si       0.19763    0.46116    0.73079    1.000
    N1182    N        0.21647    0.49697    0.74909    1.000
    N1183    N        0.20698    0.45520    0.68714    1.000
    N1184    N        0.19645    0.50203    0.64100    1.000
    N1185    N        0.18437    0.31001    0.77653    1.000
    Si1186   Si       0.18267    0.30456    0.81909    1.000
    Si1187   Si       0.18547    0.35127    0.76086    1.000
    Si1188   Si       0.19202    0.27264    0.75392    1.000
    N1189    N        0.22336    0.31678    0.82841    1.000
    N1190    N        0.16315    0.37849    0.78549    1.000
    N1191    N        0.18469    0.46307    0.80445    1.000
    Si1192   Si       0.17707    0.42047    0.79436    1.000
    N1193    N        0.20907    0.45979    0.86637    1.000
    N1194    N        0.20036    0.42295    0.75257    1.000
    Si1195   Si       0.22231    0.45343    0.82577    1.000
    Si1196   Si       0.16469    0.49773    0.81682    1.000
    N1197    N        0.17136    0.37261    0.88420    1.000
    N1198    N        0.20707    0.37636    0.98709    1.000
    Si1199   Si       0.20382    0.33460    0.97015    1.000
    Si1200   Si       0.21170    0.37141    0.89958    1.000
    N1201    N        0.22410    0.34321    0.93047    1.000
    N1202    N        0.21043    0.47928    0.92505    1.000
    Si1203   Si       0.20653    0.50240    0.88499    1.000
    Si1204   Si       0.18952    0.48197    0.96505    1.000
    N1205    N        0.18176    0.43992    0.97147    1.000
    N1206    N        0.21676    0.40934    0.92003    1.000
    Si1207   Si       0.21836    0.41373    0.96428    1.000
    Si1208   Si       0.19716    0.44394    0.90487    1.000
    Si1209   Si       0.19775    0.58071    0.07327    1.000
    N1210    N        0.18088    0.56324    0.03797    1.000
    N1211    N        0.19812    0.62758    0.01614    1.000
    N1212    N        0.18675    0.56086    0.11123    1.000
    Si1213   Si       0.19615    0.58764    0.00340    1.000
    N1214    N        0.17388    0.61654    0.07831    1.000
    Si1215   Si       0.16765    0.63875    0.04156    1.000
    N1216    N        0.17679    0.74477    0.00966    1.000
    N1217    N        0.18805    0.69218    0.11555    1.000
    Si1218   Si       0.18733    0.62066    0.18580    1.000
    N1219    N        0.19843    0.57966    0.18195    1.000
    Si1220   Si       0.19339    0.54772    0.15312    1.000
    Si1221   Si       0.17161    0.72246    0.14550    1.000
    Si1222   Si       0.17982    0.74874    0.21296    1.000
    N1223    N        0.19447    0.72241    0.18333    1.000
    N1224    N        0.21065    0.75791    0.24272    1.000
    N1225    N        0.19614    0.59826    0.32358    1.000
    N1226    N        0.18299    0.54008    0.31039    1.000
    Si1227   Si       0.17849    0.62864    0.35253    1.000
    Si1228   Si       0.21842    0.56040    0.32504    1.000
    Si1229   Si       0.22131    0.62988    0.30612    1.000
    N1230    N        0.21616    0.64421    0.26580    1.000
    N1231    N        0.20129    0.65909    0.33264    1.000
    Si1232   Si       0.19077    0.69964    0.31662    1.000
    N1233    N        0.17242    0.69272    0.27609    1.000
    Si1234   Si       0.17399    0.65241    0.25936    1.000
    Si1235   Si       0.20901    0.53429    0.40126    1.000
    N1236    N        0.20220    0.56622    0.43089    1.000
    N1237    N        0.17288    0.52750    0.38040    1.000
    N1238    N        0.18996    0.62338    0.39498    1.000
    N1239    N        0.18418    0.58879    0.49270    1.000
    Si1240   Si       0.22003    0.60251    0.41658    1.000
    Si1241   Si       0.16769    0.57549    0.45375    1.000
    Si1242   Si       0.20885    0.65941    0.47439    1.000
    N1243    N        0.16930    0.65764    0.49664    1.000
    N1244    N        0.20124    0.68647    0.44078    1.000
    N1245    N        0.20377    0.55667    0.60248    1.000
    N1246    N        0.17612    0.62232    0.62269    1.000
    Si1247   Si       0.17146    0.53022    0.62032    1.000
    N1248    N        0.18554    0.63501    0.55572    1.000
    Si1249   Si       0.19511    0.74201    0.54749    1.000
    N1250    N        0.18369    0.69490    0.60980    1.000
    N1251    N        0.21220    0.74130    0.50373    1.000
    Si1252   Si       0.19470    0.58570    0.63449    1.000
    N1253    N        0.18339    0.54542    0.71350    1.000
    Si1254   Si       0.20830    0.62447    0.69288    1.000
    Si1255   Si       0.17708    0.51794    0.74432    1.000
    N1256    N        0.21686    0.58954    0.67152    1.000
    N1257    N        0.16494    0.61514    0.70021    1.000
    N1258    N        0.20799    0.66230    0.66940    1.000
    Si1259   Si       0.17681    0.66228    0.63918    1.000
    N1260    N        0.20704    0.60977    0.78931    1.000
    N1261    N        0.18172    0.51864    0.85050    1.000
    Si1262   Si       0.17774    0.56304    0.86711    1.000
    N1263    N        0.21697    0.58210    0.85492    1.000
    N1264    N        0.19436    0.71773    0.76581    1.000
    N1265    N        0.19881    0.68873    0.82935    1.000
    N1266    N        0.17555    0.65384    0.76173    1.000
    Si1267   Si       0.21816    0.64272    0.76378    1.000
    Si1268   Si       0.22201    0.67688    0.86603    1.000
    Si1269   Si       0.22388    0.70678    0.79842    1.000
    Si1270   Si       0.21759    0.60423    0.89304    1.000
    N1271    N        0.17516    0.60288    0.89616    1.000
    N1272    N        0.18923    0.54091    0.90589    1.000
    N1273    N        0.16733    0.57742    0.97479    1.000
    Si1274   Si       0.16419    0.54751    0.94184    1.000
    N1275    N        0.19948    0.70689    0.89252    1.000
    Si1276   Si       0.21078    0.75965    0.98539    1.000
    N1277    N        0.18567    0.68150    0.97807    1.000
    Si1278   Si       0.22026    0.65872    0.99272    1.000
    N1279    N        0.20739    0.75426    0.93935    1.000
    N1280    N        0.20244    0.85225    0.03920    1.000
    N1281    N        0.22146    0.88011    0.09521    1.000
    Si1282   Si       0.21989    0.96233    0.10249    1.000
    Si1283   Si       0.18354    0.89400    0.02130    1.000
    N1284    N        0.17953    0.94263    0.10573    1.000
    N1285    N        0.20942    0.92614    0.00878    1.000
    Si1286   Si       0.18271    0.90059    0.09305    1.000
    N1287    N        0.20937    0.99865    0.08257    1.000
    Si1288   Si       0.19395    0.86495    0.18514    1.000
    N1289    N        0.20095    0.83482    0.15335    1.000
    Si1290   Si       0.17314    0.80070    0.15698    1.000
    N1291    N        0.17071    0.78690    0.19773    1.000
    N1292    N        0.16965    0.76383    0.13339    1.000
    N1293    N        0.17498    0.97253    0.18147    1.000
    Si1294   Si       0.16788    0.98222    0.22533    1.000
    N1295    N        0.19402    0.90573    0.17184    1.000
    Si1296   Si       0.20778    0.94722    0.17430    1.000
    Si1297   Si       0.20209    0.87144    0.35137    1.000
    Si1298   Si       0.20063    0.78203    0.27825    1.000
    N1299    N        0.17920    0.84030    0.32882    1.000
    Si1300   Si       0.19269    0.80218    0.34670    1.000
    N1301    N        0.17887    0.77059    0.31468    1.000
    N1302    N        0.17794    0.81495    0.26417    1.000
    N1303    N        0.18649    0.88128    0.27380    1.000
    N1304    N        0.19259    0.95900    0.32162    1.000
    Si1305   Si       0.17830    0.94416    0.36158    1.000
    N1306    N        0.18446    0.95273    0.25309    1.000
    N1307    N        0.17755    0.90214    0.37084    1.000
    Si1308   Si       0.22776    0.88460    0.28417    1.000
    N1309    N        0.17354    0.79900    0.38526    1.000
    Si1310   Si       0.19710    0.82576    0.41276    1.000
    N1311    N        0.22191    0.84827    0.38150    1.000
    Si1312   Si       0.16947    0.89567    0.41331    1.000
    Si1313   Si       0.20888    0.00251    0.38097    1.000
    N1314    N        0.20706    0.96205    0.38985    1.000
    N1315    N        0.20305    0.91167    0.43678    1.000
    Si1316   Si       0.22110    0.88846    0.46957    1.000
    N1317    N        0.18836    0.78292    0.54404    1.000
    Si1318   Si       0.19842    0.87563    0.54260    1.000
    N1319    N        0.17465    0.84651    0.56373    1.000
    Si1320   Si       0.19760    0.78217    0.50076    1.000
    N1321    N        0.16984    0.78579    0.61289    1.000
    Si1322   Si       0.16751    0.80506    0.57338    1.000
    N1323    N        0.18794    0.87993    0.49998    1.000
    N1324    N        0.19445    0.91258    0.56800    1.000
    N1325    N        0.21529    0.98166    0.59263    1.000
    Si1326   Si       0.22411    0.94359    0.57466    1.000
    N1327    N        0.20823    0.85883    0.71079    1.000
    Si1328   Si       0.20457    0.79485    0.63697    1.000
    N1329    N        0.20578    0.77557    0.67678    1.000
    Si1330   Si       0.17847    0.85010    0.67831    1.000
    N1331    N        0.20428    0.83780    0.64565    1.000
    Si1332   Si       0.17108    0.96407    0.72337    1.000
    N1333    N        0.22242    0.90401    0.64469    1.000
    N1334    N        0.19610    0.94196    0.69604    1.000
    Si1335   Si       0.18349    0.91838    0.66025    1.000
    N1336    N        0.16413    0.93385    0.62554    1.000
    N1337    N        0.16563    0.00602    0.71014    1.000
    Si1338   Si       0.20120    0.81148    0.81007    1.000
    N1339    N        0.17920    0.77767    0.79800    1.000
    N1340    N        0.21860    0.82901    0.77492    1.000
    Si1341   Si       0.19205    0.85340    0.75070    1.000
    Si1342   Si       0.19135    0.76134    0.75746    1.000
    N1343    N        0.20351    0.86423    0.86584    1.000
    N1344    N        0.22661    0.80084    0.84266    1.000
    N1345    N        0.18104    0.88731    0.77415    1.000
    Si1346   Si       0.17658    0.96891    0.85742    1.000
    Si1347   Si       0.18834    0.98554    0.79661    1.000
    N1348    N        0.19841    0.94795    0.82117    1.000
    N1349    N        0.16895    0.95827    0.76676    1.000
    Si1350   Si       0.16956    0.92442    0.79522    1.000
    N1351    N        0.18898    0.00736    0.83796    1.000
    Si1352   Si       0.20321    0.79667    0.93845    1.000
    N1353    N        0.20937    0.80305    0.98289    1.000
    Si1354   Si       0.19993    0.95037    0.97305    1.000
    N1355    N        0.16846    0.92813    0.95072    1.000
    N1356    N        0.19741    0.93611    0.88487    1.000
    Si1357   Si       0.22009    0.90069    0.88475    1.000
    N1358    N        0.18761    0.99330    0.97266    1.000
    Si1359   Si       0.25225    0.06880    0.01367    1.000
    N1360    N        0.25092    0.11520    0.08363    1.000
    N1361    N        0.24175    0.05095    0.05214    1.000
    N1362    N        0.26082    0.11288    0.01493    1.000
    N1363    N        0.27533    0.05569    0.11447    1.000
    Si1364   Si       0.24391    0.00842    0.05899    1.000
    Si1365   Si       0.22443    0.21420    0.12180    1.000
    Si1366   Si       0.24886    0.15997    0.07747    1.000
    N1367    N        0.23583    0.23751    0.01523    1.000
    N1368    N        0.23862    0.24123    0.09112    1.000
    N1369    N        0.22944    0.17199    0.11239    1.000
    Si1370   Si       0.22739    0.25627    0.05254    1.000
    N1371    N        0.22439    0.16749    0.04091    1.000
    N1372    N        0.25834    0.10034    0.16194    1.000
    Si1373   Si       0.26655    0.05789    0.15751    1.000
    N1374    N        0.24202    0.02767    0.17767    1.000
    Si1375   Si       0.23848    0.14032    0.15237    1.000
    N1376    N        0.22915    0.22964    0.16172    1.000
    N1377    N        0.23664    0.16568    0.18843    1.000
    Si1378   Si       0.27958    0.17255    0.19575    1.000
    N1379    N        0.24995    0.21924    0.22765    1.000
    N1380    N        0.26117    0.05171    0.29126    1.000
    N1381    N        0.25656    0.11336    0.27996    1.000
    Si1382   Si       0.25187    0.07692    0.25557    1.000
    Si1383   Si       0.27819    0.01127    0.28259    1.000
    Si1384   Si       0.22699    0.04501    0.32188    1.000
    N1385    N        0.23334    0.00894    0.34344    1.000
    Si1386   Si       0.25398    0.19340    0.31849    1.000
    N1387    N        0.25359    0.23251    0.29886    1.000
    N1388    N        0.27386    0.16733    0.34731    1.000
    N1389    N        0.23971    0.17408    0.28062    1.000
    Si1390   Si       0.23093    0.21700    0.26532    1.000
    Si1391   Si       0.28215    0.15294    0.27607    1.000
    Si1392   Si       0.25306    0.09613    0.37607    1.000
    N1393    N        0.26148    0.07660    0.41326    1.000
    N1394    N        0.23081    0.06236    0.47399    1.000
    Si1395   Si       0.22578    0.06142    0.43136    1.000
    N1396    N        0.22648    0.01940    0.41721    1.000
    N1397    N        0.26422    0.18323    0.47468    1.000
    Si1398   Si       0.22678    0.23340    0.41978    1.000
    N1399    N        0.23238    0.13262    0.38704    1.000
    N1400    N        0.24969    0.24793    0.45360    1.000
    Si1401   Si       0.24393    0.17461    0.37966    1.000
    Si1402   Si       0.28310    0.22364    0.46846    1.000
    N1403    N        0.26049    0.21466    0.39326    1.000
    Si1404   Si       0.22327    0.17272    0.46130    1.000
    N1405    N        0.24693    0.10317    0.57549    1.000
    N1406    N        0.25269    0.12329    0.50675    1.000
    N1407    N        0.27221    0.03300    0.51910    1.000
    Si1408   Si       0.23186    0.02738    0.50278    1.000
    Si1409   Si       0.23245    0.13313    0.54503    1.000
    N1410    N        0.24170    0.23885    0.52940    1.000
    N1411    N        0.24834    0.17306    0.55377    1.000
    N1412    N        0.26653    0.02580    0.63423    1.000
    N1413    N        0.25753    0.05356    0.70221    1.000
    Si1414   Si       0.23978    0.04722    0.66213    1.000
    Si1415   Si       0.24876    0.08552    0.73252    1.000
    N1416    N        0.24676    0.12444    0.71067    1.000
    N1417    N        0.23307    0.08800    0.64815    1.000
    N1418    N        0.28142    0.21651    0.64133    1.000
    Si1419   Si       0.27250    0.17506    0.65562    1.000
    Si1420   Si       0.26782    0.16025    0.72478    1.000
    N1421    N        0.23215    0.15714    0.64967    1.000
    Si1422   Si       0.24965    0.24659    0.63752    1.000
    N1423    N        0.27096    0.19319    0.69631    1.000
    Si1424   Si       0.25770    0.01940    0.82147    1.000
    N1425    N        0.23567    0.05375    0.80724    1.000
    N1426    N        0.27782    0.03315    0.86262    1.000
    N1427    N        0.23789    0.09166    0.86863    1.000
    Si1428   Si       0.24331    0.15414    0.79516    1.000
    Si1429   Si       0.25344    0.21514    0.83799    1.000
    N1430    N        0.27551    0.24352    0.80757    1.000
    N1431    N        0.23755    0.17364    0.75455    1.000
    N1432    N        0.22987    0.19127    0.81255    1.000
    N1433    N        0.22451    0.23841    0.86293    1.000
    Si1434   Si       0.27218    0.07195    0.88361    1.000
    N1435    N        0.27187    0.08001    0.92591    1.000
    Si1436   Si       0.27652    0.12449    0.92805    1.000
    N1437    N        0.25742    0.01167    0.95157    1.000
    N1438    N        0.23455    0.13229    0.92518    1.000
    N1439    N        0.22356    0.05407    0.98629    1.000
    Si1440   Si       0.22541    0.01019    0.98172    1.000
    Si1441   Si       0.25884    0.20819    0.94941    1.000
    N1442    N        0.25012    0.25053    0.94370    1.000
    Si1443   Si       0.25200    0.24638    0.89853    1.000
    N1444    N        0.23146    0.18492    0.97127    1.000
    N1445    N        0.26273    0.20236    0.90812    1.000
    Si1446   Si       0.25788    0.33864    0.05676    1.000
    N1447    N        0.23867    0.29837    0.06147    1.000
    Si1448   Si       0.25568    0.28136    0.10237    1.000
    Si1449   Si       0.26781    0.42939    0.07140    1.000
    N1450    N        0.25263    0.46267    0.04803    1.000
    Si1451   Si       0.26999    0.49529    0.07464    1.000
    N1452    N        0.23428    0.42628    0.09939    1.000
    N1453    N        0.25353    0.49073    0.11539    1.000
    Si1454   Si       0.22850    0.49257    0.02449    1.000
    Si1455   Si       0.23533    0.27071    0.17512    1.000
    N1456    N        0.23501    0.29421    0.13793    1.000
    Si1457   Si       0.23940    0.33516    0.15000    1.000
    Si1458   Si       0.24601    0.35536    0.21906    1.000
    N1459    N        0.27636    0.27685    0.19078    1.000
    N1460    N        0.28046    0.34427    0.16126    1.000
    N1461    N        0.22296    0.36746    0.12896    1.000
    Si1462   Si       0.23401    0.47971    0.22406    1.000
    Si1463   Si       0.28115    0.41931    0.23291    1.000
    N1464    N        0.26828    0.48816    0.19443    1.000
    N1465    N        0.26312    0.39220    0.20401    1.000
    Si1466   Si       0.23777    0.40624    0.13700    1.000
    Si1467   Si       0.26611    0.50850    0.15492    1.000
    N1468    N        0.25142    0.29915    0.35019    1.000
    N1469    N        0.27140    0.33058    0.29170    1.000
    Si1470   Si       0.22913    0.33652    0.29026    1.000
    Si1471   Si       0.23958    0.44830    0.29240    1.000
    Si1472   Si       0.26051    0.43323    0.35682    1.000
    N1473    N        0.27829    0.44517    0.31613    1.000
    N1474    N        0.25368    0.44960    0.24906    1.000
    N1475    N        0.22448    0.41887    0.33800    1.000
    Si1476   Si       0.25025    0.29143    0.45862    1.000
    Si1477   Si       0.26387    0.30225    0.39032    1.000
    N1478    N        0.23575    0.30505    0.42092    1.000
    Si1479   Si       0.27321    0.38097    0.40626    1.000
    N1480    N        0.22894    0.43382    0.45415    1.000
    N1481    N        0.26824    0.47419    0.37130    1.000
    N1482    N        0.23001    0.38569    0.39842    1.000
    N1483    N        0.28478    0.46791    0.43778    1.000
    N1484    N        0.22410    0.49778    0.42035    1.000
    Si1485   Si       0.26718    0.49393    0.40924    1.000
    Si1486   Si       0.27298    0.43170    0.46427    1.000
    N1487    N        0.28193    0.39069    0.44901    1.000
    N1488    N        0.23280    0.48855    0.49369    1.000
    N1489    N        0.26352    0.27641    0.60882    1.000
    Si1490   Si       0.26725    0.36379    0.60282    1.000
    N1491    N        0.27209    0.28975    0.53937    1.000
    Si1492   Si       0.23154    0.28182    0.53097    1.000
    Si1493   Si       0.24098    0.37452    0.50400    1.000
    N1494    N        0.27792    0.35274    0.50796    1.000
    N1495    N        0.22811    0.34552    0.60112    1.000
    Si1496   Si       0.23056    0.45430    0.51949    1.000
    N1497    N        0.25793    0.40353    0.58885    1.000
    N1498    N        0.26032    0.46541    0.55207    1.000
    N1499    N        0.25421    0.41556    0.51135    1.000
    Si1500   Si       0.27305    0.42185    0.55141    1.000
    Si1501   Si       0.23969    0.42999    0.61697    1.000
    Si1502   Si       0.26054    0.33566    0.73640    1.000
    N1503    N        0.24483    0.33433    0.69545    1.000
    Si1504   Si       0.25832    0.37301    0.67699    1.000
    N1505    N        0.25549    0.26289    0.67752    1.000
    Si1506   Si       0.22798    0.29637    0.68120    1.000
    N1507    N        0.28731    0.36196    0.64322    1.000
    Si1508   Si       0.23976    0.50181    0.64083    1.000
    Si1509   Si       0.24900    0.43872    0.68053    1.000
    N1510    N        0.25998    0.40237    0.70919    1.000
    N1511    N        0.23782    0.40422    0.65235    1.000
    N1512    N        0.25913    0.46237    0.64353    1.000
    N1513    N        0.28555    0.46063    0.70747    1.000
    N1514    N        0.25757    0.30442    0.76529    1.000
    Si1515   Si       0.24463    0.33442    0.79508    1.000
    Si1516   Si       0.25080    0.31980    0.86117    1.000
    N1517    N        0.23052    0.35940    0.76015    1.000
    N1518    N        0.27374    0.36144    0.81044    1.000
    N1519    N        0.24246    0.36345    0.86978    1.000
    Si1520   Si       0.26257    0.26044    0.76922    1.000
    Si1521   Si       0.25301    0.38932    0.83777    1.000
    N1522    N        0.25753    0.47875    0.81876    1.000
    Si1523   Si       0.23711    0.40549    0.76848    1.000
    N1524    N        0.27581    0.42919    0.76811    1.000
    N1525    N        0.22478    0.41198    0.81271    1.000
    Si1526   Si       0.25012    0.30843    0.93425    1.000
    N1527    N        0.24308    0.29136    0.89370    1.000
    N1528    N        0.23269    0.30242    0.97818    1.000
    Si1529   Si       0.25244    0.26557    0.98425    1.000
    N1530    N        0.27403    0.51054    0.93093    1.000
    N1531    N        0.25433    0.43914    0.96316    1.000
    Si1532   Si       0.24832    0.48064    0.94711    1.000
    N1533    N        0.22838    0.49706    0.98195    1.000
    Si1534   Si       0.25366    0.56351    0.03373    1.000
    Si1535   Si       0.26771    0.61330    0.08444    1.000
    N1536    N        0.23843    0.59163    0.06293    1.000
    N1537    N        0.24646    0.52441    0.05062    1.000
    Si1538   Si       0.27402    0.67997    0.05528    1.000
    N1539    N        0.25075    0.68142    0.01532    1.000
    N1540    N        0.25256    0.69744    0.09084    1.000
    N1541    N        0.24870    0.63650    0.11743    1.000
    Si1542   Si       0.22966    0.67935    0.12217    1.000
    N1543    N        0.24890    0.74776    0.99939    1.000
    N1544    N        0.23087    0.53121    0.16482    1.000
    N1545    N        0.26422    0.56443    0.22790    1.000
    Si1546   Si       0.23984    0.56663    0.18985    1.000
    N1547    N        0.26653    0.58598    0.15940    1.000
    Si1548   Si       0.25909    0.62948    0.16031    1.000
    N1549    N        0.22761    0.63777    0.18987    1.000
    N1550    N        0.27685    0.63272    0.23878    1.000
    N1551    N        0.24717    0.69239    0.22301    1.000
    N1552    N        0.27367    0.75440    0.12660    1.000
    N1553    N        0.25853    0.75026    0.19439    1.000
    Si1554   Si       0.23600    0.71493    0.18760    1.000
    N1555    N        0.25394    0.69130    0.15643    1.000
    Si1556   Si       0.23908    0.65052    0.22976    1.000
    N1557    N        0.25508    0.55671    0.29893    1.000
    Si1558   Si       0.26476    0.53346    0.26285    1.000
    N1559    N        0.26304    0.62362    0.31303    1.000
    N1560    N        0.23243    0.55240    0.36719    1.000
    Si1561   Si       0.28522    0.58415    0.31439    1.000
    N1562    N        0.22861    0.51240    0.25501    1.000
    N1563    N        0.22838    0.71994    0.31470    1.000
    Si1564   Si       0.27013    0.70262    0.31487    1.000
    Si1565   Si       0.24491    0.76017    0.32072    1.000
    Si1566   Si       0.27198    0.56461    0.38331    1.000
    N1567    N        0.25840    0.56495    0.47905    1.000
    N1568    N        0.26193    0.59987    0.40523    1.000
    N1569    N        0.22793    0.62383    0.45514    1.000
    Si1570   Si       0.26984    0.62673    0.43771    1.000
    Si1571   Si       0.22656    0.59389    0.48780    1.000
    Si1572   Si       0.24139    0.69870    0.42468    1.000
    N1573    N        0.26686    0.66420    0.41829    1.000
    N1574    N        0.26171    0.71826    0.46028    1.000
    N1575    N        0.23686    0.72809    0.39566    1.000
    N1576    N        0.25295    0.54353    0.54092    1.000
    Si1577   Si       0.24367    0.54945    0.58370    1.000
    N1578    N        0.23785    0.61087    0.52495    1.000
    Si1579   Si       0.27188    0.58742    0.54254    1.000
    N1580    N        0.27221    0.58198    0.58756    1.000
    N1581    N        0.25589    0.51307    0.60035    1.000
    Si1582   Si       0.25744    0.52559    0.49975    1.000
    N1583    N        0.24541    0.66732    0.57529    1.000
    N1584    N        0.23116    0.73393    0.57043    1.000
    N1585    N        0.23251    0.67670    0.50822    1.000
    Si1586   Si       0.24787    0.71722    0.50079    1.000
    Si1587   Si       0.26698    0.75623    0.55903    1.000
    N1588    N        0.28205    0.73187    0.52502    1.000
    Si1589   Si       0.22480    0.70098    0.59724    1.000
    Si1590   Si       0.22487    0.64996    0.54138    1.000
    N1591    N        0.25369    0.53172    0.66914    1.000
    N1592    N        0.25087    0.55746    0.73257    1.000
    Si1593   Si       0.22571    0.55478    0.69608    1.000
    N1594    N        0.23488    0.63326    0.72555    1.000
    N1595    N        0.24576    0.71315    0.63255    1.000
    Si1596   Si       0.26065    0.75314    0.62795    1.000
    N1597    N        0.27710    0.66278    0.67768    1.000
    Si1598   Si       0.23788    0.75802    0.69817    1.000
    Si1599   Si       0.27594    0.63741    0.71361    1.000
    Si1600   Si       0.24156    0.68944    0.66875    1.000
    N1601    N        0.24722    0.71405    0.70449    1.000
    Si1602   Si       0.26124    0.51992    0.83247    1.000
    N1603    N        0.27374    0.60635    0.81391    1.000
    N1604    N        0.24014    0.54425    0.80158    1.000
    Si1605   Si       0.24722    0.52403    0.76160    1.000
    Si1606   Si       0.23549    0.58674    0.81448    1.000
    N1607    N        0.24496    0.52097    0.87223    1.000
    N1608    N        0.24394    0.66970    0.78486    1.000
    N1609    N        0.26271    0.67557    0.84700    1.000
    N1610    N        0.24865    0.74446    0.80433    1.000
    Si1611   Si       0.27512    0.65101    0.81254    1.000
    Si1612   Si       0.28315    0.70880    0.86570    1.000
    N1613    N        0.24010    0.57908    0.92115    1.000
    Si1614   Si       0.25390    0.59328    0.95892    1.000
    Si1615   Si       0.25915    0.54412    0.90559    1.000
    N1616    N        0.24270    0.63518    0.96344    1.000
    N1617    N        0.23496    0.57464    0.99471    1.000
    N1618    N        0.25122    0.69900    0.94288    1.000
    Si1619   Si       0.23207    0.72701    0.91486    1.000
    N1620    N        0.25550    0.73956    0.87780    1.000
    Si1621   Si       0.26543    0.70976    0.98436    1.000
    Si1622   Si       0.25617    0.65844    0.92953    1.000
    N1623    N        0.23069    0.64519    0.89523    1.000
    N1624    N        0.25920    0.81969    0.02740    1.000
    N1625    N        0.24328    0.81878    0.09581    1.000
    Si1626   Si       0.27069    0.77681    0.02040    1.000
    Si1627   Si       0.27328    0.78682    0.09803    1.000
    N1628    N        0.27356    0.87100    0.06146    1.000
    Si1629   Si       0.23606    0.85000    0.06761    1.000
    Si1630   Si       0.22411    0.83673    0.00468    1.000
    N1631    N        0.28126    0.76476    0.06152    1.000
    Si1632   Si       0.24426    0.94876    0.02846    1.000
    Si1633   Si       0.26259    0.89961    0.09502    1.000
    N1634    N        0.23785    0.98999    0.01875    1.000
    N1635    N        0.24129    0.93859    0.07183    1.000
    N1636    N        0.28140    0.99688    0.07580    1.000
    N1637    N        0.22809    0.85981    0.20959    1.000
    Si1638   Si       0.23795    0.84076    0.13315    1.000
    Si1639   Si       0.26400    0.83697    0.20508    1.000
    Si1640   Si       0.25483    0.76382    0.23673    1.000
    N1641    N        0.27147    0.80466    0.23287    1.000
    N1642    N        0.26313    0.81752    0.16617    1.000
    N1643    N        0.27193    0.87213    0.13215    1.000
    Si1644   Si       0.28149    0.77566    0.16564    1.000
    Si1645   Si       0.25620    0.98660    0.17393    1.000
    N1646    N        0.23390    0.96371    0.14193    1.000
    N1647    N        0.23468    0.96265    0.20522    1.000
    N1648    N        0.25975    0.85732    0.27582    1.000
    N1649    N        0.24079    0.78936    0.29059    1.000
    Si1650   Si       0.27207    0.81628    0.27592    1.000
    N1651    N        0.23142    0.78330    0.35511    1.000
    N1652    N        0.24401    0.91749    0.25678    1.000
    Si1653   Si       0.26285    0.90782    0.34876    1.000
    N1654    N        0.26728    0.94933    0.33651    1.000
    N1655    N        0.24539    0.98433    0.28075    1.000
    Si1656   Si       0.23379    0.97375    0.32048    1.000
    N1657    N        0.22914    0.89233    0.32609    1.000
    Si1658   Si       0.22988    0.95740    0.24798    1.000
    Si1659   Si       0.27520    0.88947    0.24673    1.000
    N1660    N        0.22685    0.79623    0.42643    1.000
    Si1661   Si       0.24340    0.77107    0.39419    1.000
    N1662    N        0.24213    0.85881    0.44542    1.000
    Si1663   Si       0.25501    0.86288    0.40296    1.000
    Si1664   Si       0.25147    0.81588    0.45667    1.000
    N1665    N        0.23171    0.80771    0.49442    1.000
    Si1666   Si       0.25503    0.99640    0.44092    1.000
    N1667    N        0.23356    0.99027    0.47745    1.000
    Si1668   Si       0.23222    0.93516    0.41380    1.000
    N1669    N        0.26650    0.95533    0.43357    1.000
    N1670    N        0.25501    0.91176    0.48862    1.000
    N1671    N        0.25423    0.90384    0.39005    1.000
    Si1672   Si       0.25123    0.95514    0.49408    1.000
    N1673    N        0.25906    0.85455    0.60388    1.000
    N1674    N        0.24022    0.86677    0.54173    1.000
    Si1675   Si       0.25259    0.82889    0.52558    1.000
    N1676    N        0.26890    0.80114    0.55603    1.000
    Si1677   Si       0.27383    0.81219    0.59954    1.000
    N1678    N        0.24064    0.78847    0.61528    1.000
    Si1679   Si       0.26604    0.88152    0.57197    1.000
    N1680    N        0.25971    0.92292    0.58973    1.000
    N1681    N        0.24485    0.95626    0.53694    1.000
    Si1682   Si       0.28299    0.93973    0.55510    1.000
    Si1683   Si       0.23890    0.86031    0.64130    1.000
    N1684    N        0.26741    0.85407    0.67292    1.000
    Si1685   Si       0.24903    0.87234    0.70928    1.000
    N1686    N        0.22945    0.76957    0.73841    1.000
    N1687    N        0.27157    0.76492    0.67066    1.000
    Si1688   Si       0.23570    0.99565    0.62843    1.000
    N1689    N        0.25020    0.96168    0.65132    1.000
    Si1690   Si       0.23914    0.95255    0.69248    1.000
    N1691    N        0.26026    0.91429    0.69990    1.000
    Si1692   Si       0.26097    0.92345    0.63460    1.000
    N1693    N        0.25702    0.97443    0.72402    1.000
    Si1694   Si       0.26099    0.83230    0.77245    1.000
    Si1695   Si       0.25472    0.76657    0.84180    1.000
    N1696    N        0.27855    0.85382    0.80574    1.000
    N1697    N        0.26676    0.86925    0.74934    1.000
    Si1698   Si       0.26290    0.75960    0.76591    1.000
    N1699    N        0.28555    0.79760    0.76311    1.000
    N1700    N        0.22816    0.99702    0.77997    1.000
    N1701    N        0.25518    0.92897    0.79176    1.000
    Si1702   Si       0.24040    0.94144    0.83053    1.000
    N1703    N        0.25592    0.97971    0.83909    1.000
    N1704    N        0.25380    0.91056    0.85690    1.000
    Si1705   Si       0.25728    0.96609    0.76955    1.000
    Si1706   Si       0.27900    0.89229    0.78274    1.000
    N1707    N        0.27414    0.84578    0.87144    1.000
    Si1708   Si       0.23238    0.83275    0.87105    1.000
    N1709    N        0.22818    0.81985    0.91383    1.000
    Si1710   Si       0.24972    0.84913    0.93586    1.000
    N1711    N        0.23650    0.86676    0.97575    1.000
    Si1712   Si       0.25122    0.90587    0.95823    1.000
    Si1713   Si       0.27634    0.97156    0.94225    1.000
    Si1714   Si       0.28004    0.88741    0.88400    1.000
    N1715    N        0.24102    0.94802    0.95557    1.000
    N1716    N        0.24781    0.88903    0.91652    1.000
    Si1717   Si       0.32269    0.06125    0.02041    1.000
    N1718    N        0.30945    0.06465    0.06165    1.000
    Si1719   Si       0.30175    0.03151    0.08920    1.000
    N1720    N        0.31629    0.11891    0.11591    1.000
    Si1721   Si       0.30297    0.12062    0.00405    1.000
    Si1722   Si       0.28834    0.09122    0.09208    1.000
    N1723    N        0.33784    0.02912    0.11308    1.000
    N1724    N        0.34104    0.09823    0.01180    1.000
    N1725    N        0.29017    0.17321    0.08305    1.000
    N1726    N        0.31425    0.16624    0.01618    1.000
    Si1727   Si       0.32456    0.18059    0.05596    1.000
    Si1728   Si       0.32953    0.24010    0.10510    1.000
    N1729    N        0.33496    0.22323    0.06516    1.000
    Si1730   Si       0.31268    0.16685    0.11976    1.000
    N1731    N        0.28850    0.08069    0.23097    1.000
    Si1732   Si       0.31688    0.11520    0.22617    1.000
    Si1733   Si       0.30082    0.11522    0.15787    1.000
    N1734    N        0.30589    0.04886    0.17325    1.000
    Si1735   Si       0.30958    0.04404    0.21628    1.000
    N1736    N        0.33397    0.11673    0.18624    1.000
    Si1737   Si       0.32725    0.01523    0.15137    1.000
    N1738    N        0.29488    0.01273    0.24271    1.000
    Si1739   Si       0.34270    0.20590    0.17470    1.000
    N1740    N        0.33092    0.20416    0.13117    1.000
    N1741    N        0.29301    0.15304    0.23252    1.000
    Si1742   Si       0.28817    0.24185    0.21665    1.000
    N1743    N        0.28640    0.15733    0.15456    1.000
    N1744    N        0.30588    0.20783    0.19676    1.000
    N1745    N        0.33045    0.06984    0.29847    1.000
    N1746    N        0.31220    0.13119    0.30188    1.000
    N1747    N        0.28879    0.09262    0.34898    1.000
    Si1748   Si       0.28946    0.08715    0.30386    1.000
    Si1749   Si       0.32310    0.08721    0.37383    1.000
    Si1750   Si       0.34388    0.03030    0.31221    1.000
    Si1751   Si       0.31006    0.14410    0.34688    1.000
    N1752    N        0.29984    0.19313    0.29183    1.000
    Si1753   Si       0.29632    0.23665    0.28928    1.000
    N1754    N        0.31271    0.24812    0.25073    1.000
    N1755    N        0.33291    0.23196    0.36956    1.000
    N1756    N        0.32596    0.05098    0.39457    1.000
    Si1757   Si       0.29837    0.05986    0.43253    1.000
    N1758    N        0.31362    0.07568    0.47136    1.000
    N1759    N        0.29371    0.01679    0.43801    1.000
    N1760    N        0.32152    0.12869    0.38822    1.000
    N1761    N        0.31928    0.14338    0.46163    1.000
    Si1762   Si       0.30090    0.23152    0.39975    1.000
    Si1763   Si       0.28520    0.14908    0.49187    1.000
    N1764    N        0.31245    0.21539    0.43743    1.000
    Si1765   Si       0.33874    0.18127    0.45152    1.000
    N1766    N        0.31188    0.08903    0.54116    1.000
    Si1767   Si       0.31031    0.05781    0.51112    1.000
    N1768    N        0.30396    0.08477    0.61124    1.000
    N1769    N        0.33344    0.02158    0.51679    1.000
    N1770    N        0.33615    0.02053    0.62005    1.000
    Si1771   Si       0.28783    0.10232    0.57552    1.000
    Si1772   Si       0.33877    0.12363    0.53436    1.000
    N1773    N        0.30966    0.15567    0.52799    1.000
    N1774    N        0.30087    0.21712    0.56637    1.000
    N1775    N        0.30012    0.14499    0.59267    1.000
    Si1776   Si       0.29037    0.17593    0.56442    1.000
    N1777    N        0.30525    0.24240    0.50085    1.000
    Si1778   Si       0.33928    0.23498    0.58172    1.000
    Si1779   Si       0.28318    0.24775    0.53906    1.000
    Si1780   Si       0.31606    0.12299    0.62637    1.000
    Si1781   Si       0.30507    0.04742    0.63377    1.000
    N1782    N        0.31099    0.02036    0.73087    1.000
    N1783    N        0.31801    0.06480    0.67407    1.000
    Si1784   Si       0.30033    0.05865    0.71251    1.000
    N1785    N        0.29000    0.08484    0.74703    1.000
    N1786    N        0.32698    0.24961    0.68718    1.000
    N1787    N        0.30331    0.14565    0.66097    1.000
    Si1788   Si       0.33553    0.15015    0.69063    1.000
    Si1789   Si       0.28575    0.23207    0.68467    1.000
    N1790    N        0.30930    0.14716    0.72865    1.000
    Si1791   Si       0.33876    0.25512    0.72871    1.000
    Si1792   Si       0.31751    0.04888    0.84194    1.000
    Si1793   Si       0.31169    0.12015    0.76147    1.000
    N1794    N        0.30064    0.02762    0.80983    1.000
    Si1795   Si       0.31847    0.01448    0.77301    1.000
    N1796    N        0.33785    0.13478    0.83791    1.000
    Si1797   Si       0.31188    0.16226    0.81628    1.000
    Si1798   Si       0.31361    0.22962    0.78875    1.000
    N1799    N        0.32807    0.19034    0.78708    1.000
    N1800    N        0.30089    0.24603    0.75083    1.000
    N1801    N        0.33500    0.25420    0.81730    1.000
    N1802    N        0.29098    0.18764    0.84305    1.000
    N1803    N        0.28420    0.13891    0.79248    1.000
    Si1804   Si       0.28207    0.04930    0.95303    1.000
    N1805    N        0.31473    0.08299    0.87461    1.000
    Si1806   Si       0.32883    0.12292    0.87893    1.000
    N1807    N        0.32231    0.03526    0.93876    1.000
    Si1808   Si       0.33651    0.05126    0.90074    1.000
    N1809    N        0.28912    0.06317    0.99261    1.000
    Si1810   Si       0.33869    0.00685    0.96607    1.000
    N1811    N        0.30216    0.13536    0.96292    1.000
    N1812    N        0.33730    0.20291    0.89776    1.000
    N1813    N        0.29468    0.14616    0.89579    1.000
    N1814    N        0.29931    0.21008    0.96578    1.000
    Si1815   Si       0.29722    0.18831    0.88631    1.000
    Si1816   Si       0.33217    0.24785    0.89379    1.000
    Si1817   Si       0.32054    0.24624    0.97154    1.000
    Si1818   Si       0.32026    0.17301    0.97424    1.000
    N1819    N        0.29220    0.24799    0.87534    1.000
    Si1820   Si       0.31129    0.30627    0.01300    1.000
    Si1821   Si       0.32692    0.30173    0.09059    1.000
    Si1822   Si       0.31444    0.36651    0.08808    1.000
    N1823    N        0.29712    0.27017    0.10797    1.000
    N1824    N        0.33039    0.28677    0.04851    1.000
    Si1825   Si       0.30294    0.38008    0.02280    1.000
    N1826    N        0.28888    0.33205    0.08945    1.000
    N1827    N        0.28602    0.33940    0.02424    1.000
    N1828    N        0.30433    0.45541    0.08920    1.000
    Si1829   Si       0.33353    0.47601    0.06610    1.000
    N1830    N        0.33600    0.39720    0.10795    1.000
    N1831    N        0.28732    0.39192    0.06185    1.000
    Si1832   Si       0.29849    0.31498    0.19029    1.000
    N1833    N        0.34162    0.31899    0.18253    1.000
    N1834    N        0.28670    0.33597    0.22732    1.000
    Si1835   Si       0.29420    0.38436    0.17297    1.000
    Si1836   Si       0.34137    0.50089    0.15854    1.000
    N1837    N        0.33516    0.39077    0.18144    1.000
    Si1838   Si       0.30372    0.48675    0.21801    1.000
    Si1839   Si       0.31391    0.43016    0.12466    1.000
    N1840    N        0.33884    0.50512    0.20181    1.000
    N1841    N        0.31225    0.44396    0.21626    1.000
    N1842    N        0.33700    0.45590    0.15219    1.000
    N1843    N        0.28074    0.41158    0.14320    1.000
    N1844    N        0.32031    0.32883    0.33924    1.000
    Si1845   Si       0.29848    0.35013    0.26564    1.000
    N1846    N        0.30720    0.26746    0.31984    1.000
    Si1847   Si       0.28589    0.30478    0.32427    1.000
    N1848    N        0.34333    0.34495    0.27282    1.000
    Si1849   Si       0.30922    0.41791    0.29866    1.000
    Si1850   Si       0.32976    0.49065    0.28056    1.000
    Si1851   Si       0.29923    0.47561    0.34238    1.000
    N1852    N        0.29338    0.39425    0.26562    1.000
    N1853    N        0.33271    0.44992    0.35704    1.000
    N1854    N        0.33333    0.39370    0.32473    1.000
    N1855    N        0.33766    0.44780    0.28744    1.000
    Si1856   Si       0.33261    0.40686    0.36793    1.000
    N1857    N        0.29678    0.50598    0.25462    1.000
    N1858    N        0.31615    0.50809    0.31909    1.000
    N1859    N        0.29268    0.27376    0.40380    1.000
    Si1860   Si       0.32113    0.29356    0.43238    1.000
    Si1861   Si       0.32639    0.33629    0.38168    1.000
    Si1862   Si       0.29609    0.35376    0.46717    1.000
    N1863    N        0.29053    0.31034    0.45916    1.000
    N1864    N        0.28640    0.33961    0.39582    1.000
    N1865    N        0.34078    0.35418    0.46293    1.000
    N1866    N        0.31081    0.44396    0.49009    1.000
    N1867    N        0.28776    0.40884    0.37730    1.000
    Si1868   Si       0.31443    0.48154    0.46720    1.000
    Si1869   Si       0.30053    0.29474    0.59741    1.000
    N1870    N        0.32981    0.27649    0.56847    1.000
    Si1871   Si       0.29549    0.32535    0.53662    1.000
    N1872    N        0.33657    0.32959    0.52626    1.000
    N1873    N        0.29192    0.33444    0.57956    1.000
    N1874    N        0.31459    0.41260    0.55623    1.000
    N1875    N        0.30930    0.46464    0.59756    1.000
    Si1876   Si       0.32950    0.41916    0.60054    1.000
    Si1877   Si       0.33765    0.42886    0.52174    1.000
    Si1878   Si       0.28358    0.49321    0.57507    1.000
    N1879    N        0.32677    0.30106    0.63164    1.000
    N1880    N        0.30534    0.34049    0.73495    1.000
    Si1881   Si       0.32665    0.34547    0.63768    1.000
    Si1882   Si       0.33226    0.36472    0.71213    1.000
    N1883    N        0.31730    0.50638    0.64856    1.000
    N1884    N        0.31626    0.42652    0.64518    1.000
    Si1885   Si       0.30240    0.46762    0.63987    1.000
    Si1886   Si       0.30810    0.49334    0.72688    1.000
    Si1887   Si       0.29133    0.42315    0.72798    1.000
    N1888    N        0.32522    0.40752    0.70898    1.000
    Si1889   Si       0.30899    0.34384    0.82867    1.000
    N1890    N        0.32382    0.35650    0.86765    1.000
    Si1891   Si       0.29910    0.26688    0.83787    1.000
    N1892    N        0.28803    0.30891    0.84227    1.000
    Si1893   Si       0.33850    0.32981    0.76027    1.000
    N1894    N        0.34164    0.33497    0.80190    1.000
    N1895    N        0.32572    0.46582    0.80808    1.000
    Si1896   Si       0.28628    0.46760    0.78868    1.000
    Si1897   Si       0.33898    0.46141    0.85146    1.000
    N1898    N        0.28408    0.50036    0.76137    1.000
    N1899    N        0.28316    0.41445    0.85546    1.000
    Si1900   Si       0.33207    0.30850    0.94162    1.000
    N1901    N        0.29103    0.32159    0.93318    1.000
    N1902    N        0.33594    0.26516    0.93415    1.000
    N1903    N        0.29312    0.27288    0.99316    1.000
    N1904    N        0.33889    0.31822    0.98334    1.000
    N1905    N        0.30176    0.40138    0.92014    1.000
    Si1906   Si       0.31200    0.39751    0.88050    1.000
    Si1907   Si       0.31370    0.49485    0.91861    1.000
    N1908    N        0.32312    0.45878    0.94159    1.000
    N1909    N        0.32012    0.49230    0.87749    1.000
    N1910    N        0.30758    0.41110    0.99285    1.000
    Si1911   Si       0.29598    0.42668    0.95372    1.000
    Si1912   Si       0.31983    0.55889    0.06631    1.000
    N1913    N        0.29501    0.56780    0.02620    1.000
    N1914    N        0.29379    0.57837    0.09409    1.000
    N1915    N        0.31074    0.51417    0.06839    1.000
    Si1916   Si       0.31948    0.58995    0.99692    1.000
    N1917    N        0.32117    0.63614    0.99931    1.000
    Si1918   Si       0.33066    0.63622    0.04338    1.000
    N1919    N        0.29076    0.64004    0.06020    1.000
    N1920    N        0.30932    0.70176    0.06967    1.000
    Si1921   Si       0.28799    0.71938    0.10645    1.000
    N1922    N        0.34115    0.75265    0.09518    1.000
    Si1923   Si       0.30107    0.56891    0.13554    1.000
    Si1924   Si       0.29882    0.59502    0.23715    1.000
    N1925    N        0.33664    0.59275    0.14404    1.000
    Si1926   Si       0.33675    0.62320    0.17461    1.000
    N1927    N        0.30536    0.52658    0.14772    1.000
    N1928    N        0.33541    0.59929    0.21355    1.000
    N1929    N        0.31495    0.70138    0.20950    1.000
    N1930    N        0.31772    0.70124    0.13804    1.000
    Si1931   Si       0.28585    0.70360    0.24202    1.000
    N1932    N        0.29809    0.64356    0.17117    1.000
    Si1933   Si       0.29562    0.68616    0.17051    1.000
    N1934    N        0.30927    0.60046    0.28066    1.000
    N1935    N        0.30263    0.57300    0.35298    1.000
    Si1936   Si       0.33458    0.54122    0.34444    1.000
    N1937    N        0.28820    0.74630    0.25864    1.000
    N1938    N        0.28891    0.68380    0.27966    1.000
    Si1939   Si       0.28775    0.64053    0.28023    1.000
    N1940    N        0.28349    0.68814    0.35476    1.000
    Si1941   Si       0.29731    0.73059    0.36777    1.000
    N1942    N        0.28589    0.74519    0.32510    1.000
    N1943    N        0.34150    0.73540    0.36332    1.000
    Si1944   Si       0.33007    0.60308    0.37431    1.000
    N1945    N        0.28938    0.53301    0.40948    1.000
    N1946    N        0.33798    0.56313    0.46100    1.000
    Si1947   Si       0.30147    0.57865    0.47794    1.000
    N1948    N        0.30031    0.62098    0.46840    1.000
    Si1949   Si       0.33422    0.53740    0.41688    1.000
    N1950    N        0.31216    0.70944    0.41123    1.000
    Si1951   Si       0.30478    0.71337    0.45431    1.000
    N1952    N        0.33478    0.74699    0.45638    1.000
    N1953    N        0.33023    0.64052    0.39829    1.000
    Si1954   Si       0.30097    0.67013    0.39074    1.000
    N1955    N        0.31832    0.68620    0.48675    1.000
    Si1956   Si       0.33619    0.64770    0.47851    1.000
    N1957    N        0.31045    0.57314    0.52293    1.000
    Si1958   Si       0.32631    0.53120    0.52293    1.000
    Si1959   Si       0.30657    0.59864    0.60857    1.000
    Si1960   Si       0.33333    0.60541    0.54147    1.000
    N1961    N        0.29565    0.62838    0.54669    1.000
    N1962    N        0.32171    0.51280    0.56128    1.000
    N1963    N        0.29885    0.51224    0.49451    1.000
    N1964    N        0.29631    0.64015    0.61303    1.000
    N1965    N        0.31694    0.69213    0.56514    1.000
    Si1966   Si       0.31729    0.70818    0.52364    1.000
    Si1967   Si       0.32069    0.71971    0.59989    1.000
    N1968    N        0.29067    0.75089    0.59728    1.000
    Si1969   Si       0.28949    0.65930    0.57295    1.000
    Si1970   Si       0.33072    0.59907    0.67804    1.000
    Si1971   Si       0.29283    0.56562    0.73381    1.000
    Si1972   Si       0.29744    0.53844    0.66765    1.000
    N1973    N        0.29877    0.60155    0.70855    1.000
    N1974    N        0.30978    0.57567    0.64697    1.000
    N1975    N        0.30977    0.53314    0.70961    1.000
    N1976    N        0.32831    0.71291    0.70278    1.000
    N1977    N        0.32137    0.69946    0.63804    1.000
    Si1978   Si       0.31017    0.65998    0.64951    1.000
    N1979    N        0.30102    0.66384    0.73788    1.000
    Si1980   Si       0.28782    0.70011    0.71752    1.000
    Si1981   Si       0.33488    0.73141    0.74138    1.000
    N1982    N        0.31797    0.57275    0.76755    1.000
    N1983    N        0.29948    0.54189    0.82880    1.000
    Si1984   Si       0.30844    0.57957    0.81150    1.000
    Si1985   Si       0.32071    0.53411    0.86517    1.000
    N1986    N        0.34085    0.59806    0.83672    1.000
    N1987    N        0.31712    0.65651    0.80426    1.000
    Si1988   Si       0.33368    0.65957    0.76453    1.000
    N1989    N        0.29157    0.73034    0.75234    1.000
    N1990    N        0.32157    0.72550    0.86842    1.000
    N1991    N        0.33831    0.52995    0.93207    1.000
    N1992    N        0.29702    0.58387    0.96149    1.000
    N1993    N        0.29857    0.56083    0.89231    1.000
    Si1994   Si       0.32232    0.57192    0.92667    1.000
    N1995    N        0.29985    0.65385    0.93042    1.000
    Si1996   Si       0.34002    0.64450    0.91394    1.000
    Si1997   Si       0.32223    0.66685    0.96882    1.000
    N1998    N        0.30767    0.70525    0.98378    1.000
    Si1999   Si       0.33629    0.73470    0.99793    1.000
    Si2000   Si       0.29683    0.84138    0.03986    1.000
    N2001    N        0.32845    0.81234    0.05355    1.000
    N2002    N        0.31365    0.77182    0.00735    1.000
    Si2003   Si       0.32570    0.76678    0.05344    1.000
    N2004    N        0.33484    0.86570    0.10332    1.000
    N2005    N        0.31869    0.84887    0.00398    1.000
    N2006    N        0.30752    0.80818    0.11698    1.000
    Si2007   Si       0.33979    0.80828    0.00320    1.000
    N2008    N        0.29925    0.92834    0.09766    1.000
    Si2009   Si       0.30244    0.95972    0.06773    1.000
    Si2010   Si       0.33739    0.91000    0.10957    1.000
    N2011    N        0.28683    0.94293    0.02942    1.000
    N2012    N        0.34174    0.97307    0.05538    1.000
    Si2013   Si       0.31270    0.93577    0.99430    1.000
    N2014    N        0.29235    0.86734    0.21282    1.000
    Si2015   Si       0.33465    0.85769    0.20716    1.000
    Si2016   Si       0.30629    0.84870    0.13315    1.000
    N2017    N        0.33673    0.84769    0.16585    1.000
    N2018    N        0.32651    0.77634    0.17196    1.000
    Si2019   Si       0.33961    0.78097    0.12784    1.000
    Si2020   Si       0.33146    0.95749    0.17142    1.000
    N2021    N        0.32961    0.95147    0.21368    1.000
    N2022    N        0.29786    0.98329    0.15884    1.000
    N2023    N        0.30789    0.80531    0.29941    1.000
    Si2024   Si       0.30962    0.76157    0.29319    1.000
    Si2025   Si       0.32139    0.86455    0.37125    1.000
    N2026    N        0.29947    0.88549    0.33851    1.000
    Si2027   Si       0.32654    0.90066    0.30538    1.000
    Si2028   Si       0.30708    0.96627    0.33612    1.000
    N2029    N        0.31031    0.90758    0.26557    1.000
    N2030    N        0.30566    0.00655    0.31664    1.000
    N2031    N        0.33662    0.94183    0.31653    1.000
    Si2032   Si       0.31619    0.82014    0.47921    1.000
    Si2033   Si       0.30590    0.80292    0.40809    1.000
    N2034    N        0.28995    0.84019    0.39172    1.000
    N2035    N        0.28702    0.76899    0.38911    1.000
    N2036    N        0.29245    0.80400    0.44917    1.000
    Si2037   Si       0.34215    0.88172    0.44330    1.000
    N2038    N        0.32957    0.89459    0.40198    1.000
    N2039    N        0.32117    0.96997    0.37733    1.000
    Si2040   Si       0.30345    0.94698    0.45857    1.000
    Si2041   Si       0.32327    0.00543    0.40479    1.000
    N2042    N        0.34107    0.95920    0.43888    1.000
    N2043    N        0.31820    0.90606    0.47344    1.000
    N2044    N        0.29346    0.96755    0.49516    1.000
    Si2045   Si       0.30989    0.81308    0.54003    1.000
    N2046    N        0.32209    0.84010    0.56843    1.000
    N2047    N        0.33452    0.79648    0.50970    1.000
    N2048    N        0.28923    0.84227    0.50490    1.000
    Si2049   Si       0.33794    0.84087    0.61120    1.000
    Si2050   Si       0.33916    0.87995    0.55840    1.000
    Si2051   Si       0.29689    0.99864    0.52660    1.000
    N2052    N        0.30295    0.97680    0.56521    1.000
    N2053    N        0.30064    0.89926    0.54530    1.000
    Si2054   Si       0.33571    0.98681    0.59082    1.000
    Si2055   Si       0.28991    0.88696    0.50295    1.000
    Si2056   Si       0.32247    0.80551    0.74088    1.000
    N2057    N        0.30512    0.81373    0.62911    1.000
    Si2058   Si       0.31111    0.84949    0.67753    1.000
    N2059    N        0.31828    0.81217    0.69923    1.000
    Si2060   Si       0.31058    0.78758    0.66327    1.000
    N2061    N        0.32172    0.88170    0.70352    1.000
    Si2062   Si       0.30074    0.91685    0.68818    1.000
    Si2063   Si       0.29873    0.97891    0.72676    1.000
    N2064    N        0.30224    0.91284    0.64683    1.000
    N2065    N        0.32330    0.95162    0.70373    1.000
    Si2066   Si       0.29563    0.82967    0.83865    1.000
    N2067    N        0.29291    0.78600    0.84187    1.000
    Si2068   Si       0.32374    0.76737    0.86762    1.000
    N2069    N        0.33730    0.83975    0.83474    1.000
    N2070    N        0.34215    0.84244    0.76016    1.000
    N2071    N        0.30107    0.97050    0.77073    1.000
    N2072    N        0.31609    0.95825    0.84260    1.000
    N2073    N        0.31851    0.90239    0.79788    1.000
    Si2074   Si       0.32573    0.94599    0.80228    1.000
    Si2075   Si       0.29143    0.99055    0.86505    1.000
    N2076    N        0.29400    0.84229    0.94044    1.000
    N2077    N        0.31435    0.78026    0.90781    1.000
    Si2078   Si       0.32353    0.81553    0.92624    1.000
    Si2079   Si       0.31391    0.86880    0.96736    1.000
    Si2080   Si       0.32656    0.94359    0.88266    1.000
    N2081    N        0.31177    0.97208    0.97083    1.000
    N2082    N        0.29403    0.96821    0.90322    1.000
    N2083    N        0.29433    0.90821    0.96793    1.000
    N2084    N        0.32155    0.90036    0.88772    1.000
    N2085    N        0.37831    0.08765    0.09178    1.000
    Si2086   Si       0.37789    0.04392    0.09972    1.000
    Si2087   Si       0.35778    0.12357    0.10281    1.000
    N2088    N        0.38650    0.02686    0.06021    1.000
    Si2089   Si       0.38293    0.09974    0.01117    1.000
    N2090    N        0.34241    0.02510    0.00812    1.000
    N2091    N        0.35417    0.15619    0.07339    1.000
    Si2092   Si       0.39466    0.16360    0.05540    1.000
    Si2093   Si       0.35414    0.25281    0.03962    1.000
    N2094    N        0.35528    0.23632    0.99889    1.000
    N2095    N        0.40136    0.19420    0.02558    1.000
    N2096    N        0.35137    0.04366    0.22185    1.000
    Si2097   Si       0.37779    0.07819    0.22770    1.000
    N2098    N        0.40018    0.10137    0.19848    1.000
    Si2099   Si       0.37824    0.01906    0.24696    1.000
    N2100    N        0.36437    0.24427    0.17724    1.000
    Si2101   Si       0.37975    0.18049    0.23723    1.000
    N2102    N        0.39227    0.22052    0.24497    1.000
    N2103    N        0.37696    0.13936    0.13734    1.000
    Si2104   Si       0.37512    0.13368    0.18118    1.000
    N2105    N        0.36428    0.17533    0.19762    1.000
    N2106    N        0.37237    0.02902    0.34379    1.000
    N2107    N        0.38844    0.11214    0.30782    1.000
    Si2108   Si       0.34824    0.10925    0.29089    1.000
    N2109    N        0.36605    0.08817    0.36829    1.000
    N2110    N        0.35189    0.10471    0.24796    1.000
    Si2111   Si       0.40234    0.10373    0.35060    1.000
    N2112    N        0.34535    0.17069    0.34193    1.000
    Si2113   Si       0.35616    0.24599    0.25633    1.000
    N2114    N        0.35260    0.22977    0.29935    1.000
    N2115    N        0.36536    0.16539    0.27594    1.000
    Si2116   Si       0.34628    0.25472    0.33366    1.000
    N2117    N        0.39810    0.20991    0.36400    1.000
    Si2118   Si       0.34049    0.18627    0.30266    1.000
    N2119    N        0.38555    0.00857    0.47947    1.000
    N2120    N        0.37201    0.11047    0.43454    1.000
    Si2121   Si       0.37033    0.04666    0.38662    1.000
    Si2122   Si       0.34396    0.10715    0.46680    1.000
    N2123    N        0.36640    0.00945    0.41273    1.000
    N2124    N        0.40235    0.13956    0.37560    1.000
    N2125    N        0.35827    0.20321    0.48516    1.000
    Si2126   Si       0.34642    0.24685    0.48686    1.000
    Si2127   Si       0.35769    0.19828    0.37486    1.000
    Si2128   Si       0.36487    0.13592    0.39998    1.000
    N2129    N        0.36178    0.17740    0.41326    1.000
    Si2130   Si       0.38101    0.10280    0.59951    1.000
    N2131    N        0.36741    0.10790    0.50495    1.000
    N2132    N        0.38228    0.06201    0.59243    1.000
    N2133    N        0.36476    0.13091    0.56889    1.000
    N2134    N        0.36387    0.20882    0.55785    1.000
    Si2135   Si       0.38331    0.17081    0.57274    1.000
    Si2136   Si       0.38592    0.20395    0.51976    1.000
    N2137    N        0.39795    0.17806    0.61258    1.000
    Si2138   Si       0.37728    0.03303    0.62457    1.000
    Si2139   Si       0.35751    0.08392    0.67054    1.000
    N2140    N        0.35749    0.11006    0.63545    1.000
    N2141    N        0.38693    0.05330    0.66079    1.000
    N2142    N        0.35650    0.11175    0.70287    1.000
    Si2143   Si       0.37777    0.12521    0.73878    1.000
    N2144    N        0.37713    0.16786    0.72797    1.000
    N2145    N        0.36157    0.17946    0.67015    1.000
    N2146    N        0.35425    0.23720    0.62240    1.000
    Si2147   Si       0.37875    0.20565    0.63920    1.000
    Si2148   Si       0.36487    0.10898    0.81391    1.000
    Si2149   Si       0.37670    0.03854    0.80574    1.000
    N2150    N        0.35422    0.11365    0.77242    1.000
    N2151    N        0.35215    0.06804    0.82240    1.000
    N2152    N        0.36087    0.01635    0.77303    1.000
    N2153    N        0.34156    0.02061    0.87063    1.000
    N2154    N        0.40400    0.11822    0.83324    1.000
    Si2155   Si       0.36493    0.19011    0.76377    1.000
    N2156    N        0.36948    0.23270    0.75324    1.000
    N2157    N        0.39242    0.22843    0.84841    1.000
    N2158    N        0.39678    0.17089    0.78830    1.000
    Si2159   Si       0.38767    0.10560    0.92481    1.000
    N2160    N        0.37632    0.06513    0.91332    1.000
    N2161    N        0.39489    0.10789    0.96925    1.000
    N2162    N        0.36016    0.13246    0.90792    1.000
    N2163    N        0.40462    0.18331    0.90199    1.000
    Si2164   Si       0.36558    0.17414    0.91783    1.000
    N2165    N        0.36050    0.17943    0.96142    1.000
    Si2166   Si       0.38454    0.20653    0.98518    1.000
    Si2167   Si       0.37521    0.35416    0.05157    1.000
    N2168    N        0.35746    0.27435    0.11047    1.000
    N2169    N        0.35057    0.33961    0.08262    1.000
    N2170    N        0.39311    0.26555    0.05448    1.000
    N2171    N        0.34761    0.38172    0.03130    1.000
    Si2172   Si       0.39783    0.27380    0.09719    1.000
    Si2173   Si       0.37996    0.38647    0.11234    1.000
    Si2174   Si       0.37640    0.48725    0.01624    1.000
    N2175    N        0.37124    0.48160    0.08725    1.000
    Si2176   Si       0.34785    0.41898    0.00855    1.000
    N2177    N        0.34703    0.45758    0.02886    1.000
    N2178    N        0.38899    0.35915    0.14585    1.000
    N2179    N        0.38674    0.34987    0.21950    1.000
    N2180    N        0.36754    0.28301    0.23548    1.000
    Si2181   Si       0.36460    0.35834    0.18266    1.000
    Si2182   Si       0.36859    0.28598    0.19190    1.000
    N2183    N        0.38118    0.45331    0.20717    1.000
    Si2184   Si       0.34661    0.43424    0.19085    1.000
    Si2185   Si       0.37821    0.49514    0.22319    1.000
    N2186    N        0.39759    0.42540    0.12110    1.000
    Si2187   Si       0.39316    0.46951    0.12407    1.000
    N2188    N        0.38350    0.50505    0.14822    1.000
    N2189    N        0.38447    0.34850    0.33238    1.000
    N2190    N        0.38465    0.27331    0.33811    1.000
    Si2191   Si       0.37577    0.32346    0.25319    1.000
    Si2192   Si       0.34635    0.35420    0.31527    1.000
    N2193    N        0.38648    0.47518    0.33189    1.000
    Si2194   Si       0.36754    0.43615    0.32097    1.000
    N2195    N        0.38222    0.41238    0.36254    1.000
    N2196    N        0.36678    0.50544    0.26435    1.000
    Si2197   Si       0.36444    0.47741    0.36825    1.000
    N2198    N        0.35508    0.27116    0.45249    1.000
    Si2199   Si       0.36739    0.36206    0.43000    1.000
    Si2200   Si       0.38588    0.29197    0.42704    1.000
    N2201    N        0.35036    0.30844    0.40324    1.000
    N2202    N        0.39964    0.33309    0.43330    1.000
    N2203    N        0.34143    0.37374    0.39503    1.000
    N2204    N        0.34503    0.49921    0.44215    1.000
    Si2205   Si       0.39263    0.41639    0.47309    1.000
    Si2206   Si       0.38554    0.48415    0.43857    1.000
    N2207    N        0.38777    0.46410    0.40082    1.000
    N2208    N        0.38929    0.39971    0.43309    1.000
    N2209    N        0.38266    0.45820    0.47477    1.000
    Si2210   Si       0.35977    0.29841    0.54561    1.000
    N2211    N        0.38998    0.31638    0.56915    1.000
    N2212    N        0.37043    0.26828    0.51587    1.000
    Si2213   Si       0.35905    0.35639    0.50292    1.000
    N2214    N        0.39836    0.33729    0.50518    1.000
    N2215    N        0.34625    0.37624    0.61266    1.000
    N2216    N        0.36566    0.40066    0.50367    1.000
    Si2217   Si       0.38331    0.48410    0.50888    1.000
    N2218    N        0.35838    0.46299    0.53887    1.000
    N2219    N        0.36747    0.44372    0.60000    1.000
    Si2220   Si       0.35138    0.48255    0.58089    1.000
    Si2221   Si       0.38641    0.37988    0.62477    1.000
    N2222    N        0.38118    0.28494    0.67056    1.000
    Si2223   Si       0.38534    0.32781    0.67371    1.000
    N2224    N        0.34818    0.34817    0.67484    1.000
    N2225    N        0.36449    0.36158    0.74279    1.000
    Si2226   Si       0.34615    0.26665    0.65286    1.000
    N2227    N        0.40006    0.33917    0.63340    1.000
    N2228    N        0.35664    0.29299    0.74479    1.000
    Si2229   Si       0.38243    0.48285    0.71087    1.000
    N2230    N        0.34762    0.47929    0.73996    1.000
    Si2231   Si       0.34804    0.42368    0.67451    1.000
    N2232    N        0.35995    0.46423    0.67323    1.000
    Si2233   Si       0.35981    0.50378    0.65027    1.000
    N2234    N        0.38487    0.40384    0.66170    1.000
    Si2235   Si       0.38574    0.32905    0.80848    1.000
    N2236    N        0.39077    0.28584    0.80780    1.000
    Si2237   Si       0.38894    0.27045    0.76661    1.000
    N2238    N        0.39024    0.33829    0.85071    1.000
    Si2239   Si       0.37056    0.26373    0.83967    1.000
    N2240    N        0.35150    0.28363    0.87331    1.000
    Si2241   Si       0.36098    0.47479    0.78207    1.000
    N2242    N        0.39404    0.44334    0.78372    1.000
    N2243    N        0.38275    0.46825    0.84738    1.000
    Si2244   Si       0.35530    0.32652    0.87748    1.000
    N2245    N        0.36006    0.33081    0.91979    1.000
    Si2246   Si       0.39884    0.34671    0.92530    1.000
    N2247    N        0.39497    0.45162    0.91687    1.000
    Si2248   Si       0.36695    0.45516    0.95146    1.000
    Si2249   Si       0.38986    0.42239    0.88198    1.000
    N2250    N        0.37461    0.49147    0.97355    1.000
    N2251    N        0.37800    0.42395    0.97817    1.000
    N2252    N        0.34593    0.42279    0.87322    1.000
    Si2253   Si       0.37542    0.56830    0.02688    1.000
    N2254    N        0.36955    0.52636    0.03638    1.000
    N2255    N        0.35954    0.55472    0.09350    1.000
    N2256    N        0.39245    0.62164    0.10066    1.000
    Si2257   Si       0.38566    0.52293    0.07779    1.000
    N2258    N        0.34627    0.59658    0.04513    1.000
    Si2259   Si       0.37215    0.58736    0.11860    1.000
    Si2260   Si       0.39274    0.65887    0.07951    1.000
    N2261    N        0.38504    0.69749    0.10356    1.000
    N2262    N        0.36180    0.66640    0.05137    1.000
    N2263    N        0.35605    0.73609    0.03656    1.000
    Si2264   Si       0.35251    0.71003    0.07240    1.000
    Si2265   Si       0.37301    0.60100    0.23425    1.000
    N2266    N        0.39858    0.61662    0.20218    1.000
    N2267    N        0.40051    0.57286    0.14608    1.000
    Si2268   Si       0.39173    0.66054    0.19983    1.000
    Si2269   Si       0.35567    0.71870    0.21373    1.000
    N2270    N        0.37713    0.71700    0.17427    1.000
    N2271    N        0.36408    0.65531    0.16491    1.000
    N2272    N        0.37208    0.68152    0.23332    1.000
    Si2273   Si       0.36045    0.69319    0.14165    1.000
    N2274    N        0.36092    0.75830    0.23130    1.000
    N2275    N        0.35771    0.55949    0.31139    1.000
    Si2276   Si       0.38536    0.54006    0.28352    1.000
    N2277    N        0.36971    0.62544    0.27043    1.000
    N2278    N        0.35353    0.62171    0.33920    1.000
    Si2279   Si       0.34999    0.60267    0.30099    1.000
    N2280    N        0.39005    0.56396    0.24756    1.000
    N2281    N        0.37025    0.68189    0.31095    1.000
    Si2282   Si       0.38315    0.66612    0.27268    1.000
    Si2283   Si       0.38279    0.65322    0.34253    1.000
    Si2284   Si       0.36421    0.72102    0.33038    1.000
    N2285    N        0.35046    0.74461    0.29718    1.000
    N2286    N        0.35087    0.57259    0.39650    1.000
    Si2287   Si       0.37848    0.55352    0.47563    1.000
    Si2288   Si       0.39239    0.57092    0.40259    1.000
    N2289    N        0.39640    0.54161    0.43585    1.000
    N2290    N        0.34598    0.51462    0.37541    1.000
    Si2291   Si       0.34653    0.74626    0.41043    1.000
    N2292    N        0.38910    0.73523    0.41496    1.000
    N2293    N        0.38818    0.67410    0.38111    1.000
    N2294    N        0.37162    0.65991    0.45205    1.000
    Si2295   Si       0.37188    0.64636    0.40991    1.000
    Si2296   Si       0.38627    0.60800    0.59355    1.000
    N2297    N        0.36783    0.52439    0.50605    1.000
    N2298    N        0.35585    0.62513    0.51077    1.000
    Si2299   Si       0.39874    0.61707    0.51497    1.000
    N2300    N        0.34491    0.59959    0.58451    1.000
    N2301    N        0.37638    0.51082    0.60958    1.000
    N2302    N        0.35819    0.74054    0.59058    1.000
    Si2303   Si       0.38168    0.73767    0.55493    1.000
    N2304    N        0.35308    0.73320    0.52188    1.000
    N2305    N        0.39416    0.64833    0.60912    1.000
    N2306    N        0.36128    0.58194    0.69939    1.000
    N2307    N        0.38122    0.51873    0.68428    1.000
    Si2308   Si       0.39427    0.55392    0.70572    1.000
    Si2309   Si       0.35295    0.58457    0.74238    1.000
    Si2310   Si       0.34780    0.72063    0.66605    1.000
    N2311    N        0.34454    0.63667    0.66151    1.000
    N2312    N        0.38654    0.69816    0.66178    1.000
    Si2313   Si       0.38319    0.65620    0.65202    1.000
    Si2314   Si       0.37964    0.58061    0.85257    1.000
    N2315    N        0.36350    0.53975    0.85891    1.000
    N2316    N        0.36083    0.62389    0.75999    1.000
    Si2317   Si       0.39381    0.61646    0.78755    1.000
    Si2318   Si       0.39199    0.51282    0.83983    1.000
    N2319    N        0.38983    0.56424    0.75032    1.000
    N2320    N        0.38099    0.50970    0.79731    1.000
    N2321    N        0.38431    0.71560    0.83767    1.000
    N2322    N        0.38363    0.64773    0.81591    1.000
    N2323    N        0.35813    0.69749    0.76092    1.000
    Si2324   Si       0.34440    0.64170    0.83457    1.000
    Si2325   Si       0.40019    0.69685    0.75052    1.000
    Si2326   Si       0.39323    0.58959    0.92276    1.000
    N2327    N        0.35168    0.60360    0.91982    1.000
    N2328    N        0.35794    0.56931    0.98677    1.000
    Si2329   Si       0.37049    0.53360    0.96250    1.000
    N2330    N        0.37012    0.73473    0.97029    1.000
    N2331    N        0.39469    0.70892    0.90044    1.000
    Si2332   Si       0.35977    0.70482    0.87360    1.000
    Si2333   Si       0.38921    0.70372    0.94429    1.000
    N2334    N        0.34621    0.66161    0.87395    1.000
    N2335    N        0.35802    0.67146    0.94354    1.000
    N2336    N        0.38229    0.79720    0.01329    1.000
    N2337    N        0.38752    0.85189    0.05998    1.000
    Si2338   Si       0.35391    0.83449    0.08310    1.000
    N2339    N        0.37417    0.81054    0.11661    1.000
    Si2340   Si       0.36373    0.00195    0.03427    1.000
    Si2341   Si       0.36957    0.93880    0.03970    1.000
    N2342    N        0.36524    0.91664    0.07819    1.000
    N2343    N        0.38413    0.97084    0.01044    1.000
    N2344    N        0.34939    0.91693    0.00809    1.000
    Si2345   Si       0.37539    0.83653    0.15490    1.000
    N2346    N        0.39033    0.80651    0.18528    1.000
    Si2347   Si       0.35335    0.79279    0.20446    1.000
    N2348    N        0.35086    0.82663    0.23236    1.000
    N2349    N        0.39687    0.87415    0.15402    1.000
    Si2350   Si       0.34294    0.92107    0.24014    1.000
    N2351    N        0.36110    0.98792    0.16227    1.000
    Si2352   Si       0.37875    0.90555    0.17625    1.000
    N2353    N        0.36042    0.89139    0.21354    1.000
    N2354    N        0.34817    0.92397    0.15013    1.000
    N2355    N        0.40227    0.93980    0.19181    1.000
    N2356    N        0.37688    0.80561    0.29122    1.000
    Si2357   Si       0.37396    0.84166    0.26601    1.000
    N2358    N        0.35070    0.83548    0.35723    1.000
    N2359    N        0.34959    0.86480    0.29449    1.000
    Si2360   Si       0.37935    0.76666    0.27107    1.000
    Si2361   Si       0.34431    0.82512    0.31544    1.000
    Si2362   Si       0.37009    0.96265    0.29676    1.000
    N2363    N        0.37715    0.93218    0.26554    1.000
    N2364    N        0.36213    0.00226    0.28366    1.000
    N2365    N        0.34852    0.84035    0.45784    1.000
    Si2366   Si       0.35479    0.76401    0.49104    1.000
    Si2367   Si       0.38920    0.82518    0.45828    1.000
    N2368    N        0.38940    0.78227    0.46916    1.000
    Si2369   Si       0.37979    0.81276    0.38529    1.000
    N2370    N        0.34698    0.79020    0.40375    1.000
    N2371    N        0.40291    0.83145    0.41785    1.000
    Si2372   Si       0.34157    0.93714    0.39853    1.000
    N2373    N        0.37984    0.90232    0.45329    1.000
    N2374    N        0.38430    0.92519    0.38775    1.000
    Si2375   Si       0.37671    0.98286    0.44519    1.000
    Si2376   Si       0.35860    0.91476    0.48923    1.000
    N2377    N        0.37121    0.81122    0.60467    1.000
    Si2378   Si       0.36970    0.77095    0.61962    1.000
    Si2379   Si       0.40276    0.86941    0.52122    1.000
    N2380    N        0.36199    0.88606    0.52167    1.000
    Si2381   Si       0.36839    0.99454    0.51815    1.000
    N2382    N        0.35373    0.95433    0.61420    1.000
    N2383    N        0.36892    0.98754    0.56136    1.000
    N2384    N        0.37010    0.95069    0.50756    1.000
    Si2385   Si       0.39507    0.96294    0.59581    1.000
    N2386    N        0.34636    0.88659    0.60093    1.000
    N2387    N        0.34840    0.85127    0.65531    1.000
    Si2388   Si       0.39162    0.85272    0.66357    1.000
    Si2389   Si       0.35520    0.87024    0.72783    1.000
    N2390    N        0.39175    0.85490    0.70875    1.000
    N2391    N        0.34529    0.76257    0.65498    1.000
    N2392    N        0.39009    0.97001    0.72208    1.000
    Si2393   Si       0.34446    0.91692    0.63270    1.000
    Si2394   Si       0.36363    0.93716    0.70985    1.000
    Si2395   Si       0.39301    0.00724    0.74545    1.000
    N2396    N        0.37152    0.92116    0.66932    1.000
    N2397    N        0.36834    0.91023    0.74164    1.000
    N2398    N        0.36409    0.77880    0.85325    1.000
    Si2399   Si       0.36819    0.82181    0.86062    1.000
    N2400    N        0.38364    0.87759    0.80373    1.000
    Si2401   Si       0.39115    0.77273    0.74920    1.000
    N2402    N        0.34958    0.77209    0.74223    1.000
    N2403    N        0.40234    0.77406    0.79225    1.000
    Si2404   Si       0.34106    0.86490    0.79905    1.000
    Si2405   Si       0.39599    0.75637    0.83173    1.000
    N2406    N        0.37249    0.94841    0.80203    1.000
    Si2407   Si       0.38522    0.91359    0.78032    1.000
    N2408    N        0.39731    0.00755    0.83038    1.000
    N2409    N        0.35897    0.83178    0.90321    1.000
    Si2410   Si       0.38707    0.81543    0.93669    1.000
    N2411    N        0.34970    0.80568    0.95899    1.000
    Si2412   Si       0.35563    0.87596    0.90689    1.000
    Si2413   Si       0.39817    0.76581    0.98504    1.000
    N2414    N        0.39349    0.89227    0.89711    1.000
    Si2415   Si       0.38072    0.99730    0.86817    1.000
    N2416    N        0.36727    0.96091    0.88735    1.000
    N2417    N        0.39044    0.93811    0.94872    1.000
    Si2418   Si       0.39788    0.93549    0.90654    1.000
    N2419    N        0.35155    0.87738    0.95010    1.000
    Si2420   Si       0.37609    0.90472    0.97414    1.000
    N2421    N        0.38152    0.00576    0.95607    1.000
    Si2422   Si       0.41709    0.10095    0.07848    1.000
    Si2423   Si       0.42518    0.03896    0.04711    1.000
    N2424    N        0.44733    0.07394    0.06493    1.000
    N2425    N        0.41402    0.06400    0.01238    1.000
    N2426    N        0.44203    0.11725    0.11266    1.000
    N2427    N        0.40336    0.12427    0.04276    1.000
    N2428    N        0.45350    0.00718    0.05445    1.000
    N2429    N        0.44782    0.24912    0.01509    1.000
    Si2430   Si       0.44258    0.20662    0.02560    1.000
    Si2431   Si       0.44221    0.21097    0.10196    1.000
    N2432    N        0.41802    0.17200    0.09022    1.000
    N2433    N        0.41707    0.24105    0.11822    1.000
    N2434    N        0.46135    0.21867    0.06503    1.000
    N2435    N        0.41409    0.03984    0.12007    1.000
    Si2436   Si       0.44650    0.02906    0.14401    1.000
    Si2437   Si       0.43234    0.12726    0.20999    1.000
    N2438    N        0.42943    0.22327    0.18778    1.000
    Si2439   Si       0.43108    0.23364    0.23171    1.000
    N2440    N        0.41306    0.14884    0.24301    1.000
    Si2441   Si       0.42195    0.15287    0.13019    1.000
    N2442    N        0.42753    0.15152    0.17324    1.000
    Si2443   Si       0.45073    0.18719    0.17650    1.000
    Si2444   Si       0.40529    0.24649    0.15954    1.000
    Si2445   Si       0.44170    0.04993    0.27018    1.000
    N2446    N        0.43898    0.08328    0.35429    1.000
    N2447    N        0.44195    0.02370    0.30536    1.000
    N2448    N        0.43812    0.01264    0.36941    1.000
    N2449    N        0.40180    0.05623    0.25707    1.000
    N2450    N        0.45526    0.08729    0.28687    1.000
    Si2451   Si       0.40422    0.14745    0.28583    1.000
    Si2452   Si       0.41314    0.25044    0.36443    1.000
    N2453    N        0.43078    0.16614    0.31311    1.000
    Si2454   Si       0.42198    0.17391    0.35568    1.000
    N2455    N        0.45409    0.24905    0.35215    1.000
    N2456    N        0.44943    0.11744    0.43564    1.000
    N2457    N        0.41827    0.07109    0.47427    1.000
    Si2458   Si       0.42236    0.03064    0.49188    1.000
    Si2459   Si       0.41124    0.09412    0.43868    1.000
    N2460    N        0.40784    0.05999    0.40935    1.000
    Si2461   Si       0.44270    0.05207    0.38534    1.000
    N2462    N        0.45701    0.00911    0.47956    1.000
    N2463    N        0.46193    0.22742    0.44348    1.000
    Si2464   Si       0.45531    0.21371    0.48505    1.000
    N2465    N        0.46032    0.17040    0.48918    1.000
    N2466    N        0.44002    0.11266    0.53433    1.000
    N2467    N        0.42245    0.11590    0.60139    1.000
    Si2468   Si       0.45121    0.09649    0.57369    1.000
    Si2469   Si       0.41516    0.03761    0.57400    1.000
    N2470    N        0.41225    0.04672    0.53280    1.000
    Si2471   Si       0.40818    0.08905    0.51337    1.000
    N2472    N        0.45262    0.05460    0.58292    1.000
    Si2473   Si       0.44834    0.15465    0.52897    1.000
    N2474    N        0.40903    0.17035    0.53578    1.000
    N2475    N        0.41880    0.22683    0.50403    1.000
    Si2476   Si       0.42300    0.04758    0.68546    1.000
    N2477    N        0.41900    0.10968    0.73626    1.000
    Si2478   Si       0.44349    0.12176    0.70181    1.000
    N2479    N        0.40984    0.04221    0.72673    1.000
    N2480    N        0.45287    0.07909    0.68504    1.000
    N2481    N        0.42220    0.14333    0.67127    1.000
    Si2482   Si       0.42795    0.14952    0.62828    1.000
    Si2483   Si       0.40423    0.18215    0.69494    1.000
    N2484    N        0.40703    0.22059    0.67044    1.000
    N2485    N        0.43842    0.18405    0.72201    1.000
    N2486    N        0.44180    0.05850    0.85650    1.000
    Si2487   Si       0.43826    0.03228    0.82118    1.000
    Si2488   Si       0.43152    0.09878    0.86265    1.000
    N2489    N        0.41331    0.05638    0.79240    1.000
    Si2490   Si       0.42865    0.07001    0.75484    1.000
    N2491    N        0.44260    0.18189    0.83968    1.000
    Si2492   Si       0.43464    0.14427    0.82075    1.000
    Si2493   Si       0.43320    0.17441    0.76408    1.000
    N2494    N        0.45007    0.21064    0.77954    1.000
    N2495    N        0.45722    0.14365    0.78362    1.000
    Si2496   Si       0.42252    0.20649    0.86770    1.000
    Si2497   Si       0.43034    0.08026    0.97569    1.000
    N2498    N        0.43628    0.05017    0.94654    1.000
    N2499    N        0.42612    0.10988    0.90451    1.000
    Si2500   Si       0.39999    0.03166    0.92945    1.000
    Si2501   Si       0.43584    0.19703    0.92909    1.000
    N2502    N        0.42007    0.21640    0.96452    1.000
    N2503    N        0.45030    0.22433    0.89709    1.000
    N2504    N        0.42648    0.30751    0.10781    1.000
    Si2505   Si       0.42179    0.28522    0.02759    1.000
    N2506    N        0.40237    0.32947    0.02969    1.000
    N2507    N        0.40245    0.38075    0.07502    1.000
    Si2508   Si       0.43738    0.38998    0.05141    1.000
    N2509    N        0.43571    0.40951    0.01096    1.000
    Si2510   Si       0.43934    0.43225    0.10811    1.000
    N2511    N        0.41470    0.47562    0.02946    1.000
    Si2512   Si       0.44665    0.44805    0.02912    1.000
    N2513    N        0.43520    0.47535    0.11412    1.000
    N2514    N        0.45065    0.42802    0.06622    1.000
    N2515    N        0.44348    0.27380    0.22880    1.000
    Si2516   Si       0.44692    0.29614    0.19324    1.000
    Si2517   Si       0.41634    0.32599    0.14601    1.000
    Si2518   Si       0.42918    0.35913    0.21231    1.000
    N2519    N        0.44790    0.33767    0.17656    1.000
    N2520    N        0.40885    0.28831    0.17106    1.000
    Si2521   Si       0.42297    0.43890    0.20951    1.000
    N2522    N        0.44813    0.45187    0.17682    1.000
    N2523    N        0.43849    0.39905    0.20262    1.000
    N2524    N        0.44174    0.31206    0.34929    1.000
    Si2525   Si       0.44388    0.30046    0.26389    1.000
    N2526    N        0.40616    0.31094    0.28279    1.000
    N2527    N        0.44698    0.38216    0.34636    1.000
    Si2528   Si       0.40490    0.30946    0.32600    1.000
    N2529    N        0.45026    0.33726    0.24152    1.000
    Si2530   Si       0.42677    0.49447    0.33066    1.000
    Si2531   Si       0.44030    0.43404    0.28820    1.000
    N2532    N        0.45332    0.46814    0.31150    1.000
    N2533    N        0.43832    0.44751    0.24711    1.000
    N2534    N        0.40279    0.41540    0.30188    1.000
    Si2535   Si       0.40513    0.38671    0.33382    1.000
    N2536    N        0.44358    0.49980    0.37033    1.000
    Si2537   Si       0.44779    0.26639    0.43168    1.000
    Si2538   Si       0.42217    0.32644    0.47038    1.000
    N2539    N        0.42161    0.28308    0.46346    1.000
    N2540    N        0.41234    0.26444    0.40386    1.000
    N2541    N        0.45741    0.35020    0.47194    1.000
    Si2542   Si       0.45432    0.47213    0.40335    1.000
    N2543    N        0.44476    0.42889    0.40011    1.000
    Si2544   Si       0.44427    0.46155    0.48110    1.000
    N2545    N        0.43135    0.48513    0.44255    1.000
    N2546    N        0.43526    0.41932    0.48297    1.000
    Si2547   Si       0.40265    0.42195    0.39860    1.000
    Si2548   Si       0.42589    0.33051    0.54211    1.000
    N2549    N        0.43862    0.29078    0.52814    1.000
    Si2550   Si       0.41661    0.31360    0.60324    1.000
    N2551    N        0.44299    0.37249    0.53826    1.000
    N2552    N        0.45100    0.33084    0.58322    1.000
    Si2553   Si       0.41179    0.26842    0.50317    1.000
    N2554    N        0.42787    0.27430    0.61922    1.000
    Si2555   Si       0.45223    0.38401    0.58187    1.000
    N2556    N        0.43580    0.46886    0.58000    1.000
    N2557    N        0.42633    0.48261    0.51428    1.000
    N2558    N        0.41188    0.39676    0.59516    1.000
    Si2559   Si       0.40954    0.43862    0.60023    1.000
    Si2560   Si       0.43653    0.50147    0.55171    1.000
    Si2561   Si       0.45704    0.38559    0.49849    1.000
    Si2562   Si       0.45008    0.47946    0.62136    1.000
    N2563    N        0.44850    0.28498    0.68456    1.000
    N2564    N        0.41523    0.33819    0.70481    1.000
    Si2565   Si       0.45632    0.32456    0.70110    1.000
    Si2566   Si       0.41829    0.26221    0.66303    1.000
    Si2567   Si       0.40710    0.35797    0.74333    1.000
    Si2568   Si       0.45514    0.48819    0.73358    1.000
    N2569    N        0.40900    0.44727    0.71242    1.000
    Si2570   Si       0.42000    0.42681    0.67480    1.000
    N2571    N        0.42960    0.44686    0.63838    1.000
    N2572    N        0.46071    0.40949    0.68667    1.000
    N2573    N        0.41474    0.50464    0.73704    1.000
    N2574    N        0.43477    0.39168    0.74489    1.000
    N2575    N        0.41697    0.33851    0.77969    1.000
    Si2576   Si       0.42093    0.36762    0.86376    1.000
    N2577    N        0.42935    0.27460    0.75327    1.000
    Si2578   Si       0.45061    0.31111    0.77257    1.000
    Si2579   Si       0.41252    0.44527    0.82143    1.000
    N2580    N        0.41380    0.40909    0.84606    1.000
    N2581    N        0.45121    0.46809    0.81702    1.000
    Si2582   Si       0.41907    0.43310    0.75199    1.000
    Si2583   Si       0.43924    0.25453    0.97214    1.000
    N2584    N        0.43050    0.32164    0.91636    1.000
    Si2585   Si       0.41799    0.33095    0.98868    1.000
    N2586    N        0.41504    0.28888    0.98428    1.000
    N2587    N        0.40426    0.36364    0.96473    1.000
    Si2588   Si       0.41729    0.40454    0.97095    1.000
    N2589    N        0.45771    0.46679    0.88475    1.000
    N2590    N        0.40342    0.38283    0.90169    1.000
    N2591    N        0.44940    0.42279    0.94496    1.000
    Si2592   Si       0.43792    0.45949    0.92303    1.000
    N2593    N        0.45113    0.49215    0.95000    1.000
    N2594    N        0.42847    0.53613    0.08033    1.000
    N2595    N        0.41625    0.58144    0.02627    1.000
    Si2596   Si       0.44640    0.56651    0.05425    1.000
    Si2597   Si       0.43979    0.62326    0.10196    1.000
    Si2598   Si       0.45383    0.51425    0.10628    1.000
    N2599    N        0.45011    0.63442    0.99962    1.000
    N2600    N        0.45028    0.73182    0.07567    1.000
    N2601    N        0.43516    0.65461    0.06874    1.000
    Si2602   Si       0.42055    0.72222    0.10754    1.000
    N2603    N        0.43086    0.74990    0.00845    1.000
    N2604    N        0.45423    0.52490    0.14918    1.000
    N2605    N        0.44745    0.57138    0.19239    1.000
    Si2606   Si       0.42400    0.60158    0.17070    1.000
    Si2607   Si       0.42693    0.55363    0.22698    1.000
    Si2608   Si       0.41378    0.53405    0.16293    1.000
    N2609    N        0.40913    0.51936    0.20476    1.000
    N2610    N        0.44484    0.62938    0.14470    1.000
    Si2611   Si       0.44162    0.75342    0.24317    1.000
    N2612    N        0.43218    0.67347    0.19986    1.000
    Si2613   Si       0.41660    0.73186    0.16661    1.000
    Si2614   Si       0.45562    0.66510    0.23666    1.000
    N2615    N        0.44182    0.70559    0.14253    1.000
    N2616    N        0.42994    0.74929    0.20298    1.000
    Si2617   Si       0.45529    0.66781    0.16156    1.000
    N2618    N        0.42053    0.52842    0.30373    1.000
    Si2619   Si       0.43838    0.60276    0.35534    1.000
    N2620    N        0.45568    0.56733    0.25721    1.000
    Si2621   Si       0.45826    0.55002    0.29627    1.000
    N2622    N        0.42142    0.63651    0.33397    1.000
    Si2623   Si       0.43512    0.73081    0.31221    1.000
    N2624    N        0.42699    0.66338    0.26883    1.000
    N2625    N        0.41416    0.74179    0.27555    1.000
    Si2626   Si       0.44783    0.65838    0.30596    1.000
    N2627    N        0.45912    0.69585    0.32568    1.000
    N2628    N        0.40390    0.72830    0.34308    1.000
    N2629    N        0.40214    0.61248    0.41455    1.000
    N2630    N        0.42026    0.56552    0.37185    1.000
    Si2631   Si       0.44952    0.57768    0.48846    1.000
    Si2632   Si       0.43784    0.52928    0.44320    1.000
    Si2633   Si       0.44361    0.62152    0.42615    1.000
    N2634    N        0.40658    0.58255    0.49074    1.000
    N2635    N        0.46024    0.53529    0.48154    1.000
    N2636    N        0.44547    0.66337    0.43597    1.000
    N2637    N        0.45086    0.71440    0.39376    1.000
    Si2638   Si       0.41254    0.67407    0.46528    1.000
    Si2639   Si       0.41188    0.75244    0.44840    1.000
    Si2640   Si       0.40796    0.71424    0.38353    1.000
    N2641    N        0.42191    0.71623    0.47238    1.000
    N2642    N        0.42733    0.54061    0.56743    1.000
    Si2643   Si       0.44384    0.58336    0.56310    1.000
    Si2644   Si       0.40921    0.53850    0.60700    1.000
    N2645    N        0.40696    0.60406    0.55625    1.000
    Si2646   Si       0.42303    0.67400    0.58862    1.000
    N2647    N        0.42183    0.65001    0.50143    1.000
    N2648    N        0.45590    0.65354    0.56518    1.000
    Si2649   Si       0.45641    0.66534    0.52397    1.000
    N2650    N        0.40291    0.70160    0.56166    1.000
    N2651    N        0.44344    0.69626    0.62076    1.000
    N2652    N        0.40605    0.57910    0.62141    1.000
    N2653    N        0.43853    0.51913    0.63178    1.000
    N2654    N        0.43212    0.56338    0.68517    1.000
    Si2655   Si       0.43303    0.59463    0.65365    1.000
    N2656    N        0.41718    0.63270    0.67036    1.000
    Si2657   Si       0.44747    0.64996    0.69520    1.000
    Si2658   Si       0.41985    0.72251    0.64688    1.000
    N2659    N        0.42529    0.67767    0.72070    1.000
    Si2660   Si       0.44187    0.71878    0.71552    1.000
    N2661    N        0.45017    0.73198    0.67688    1.000
    N2662    N        0.40710    0.73642    0.73329    1.000
    N2663    N        0.44436    0.53876    0.79006    1.000
    N2664    N        0.43684    0.61773    0.77989    1.000
    Si2665   Si       0.44421    0.58064    0.80452    1.000
    N2666    N        0.43024    0.52389    0.85793    1.000
    Si2667   Si       0.40772    0.53127    0.77028    1.000
    N2668    N        0.40221    0.58084    0.81533    1.000
    N2669    N        0.42749    0.69916    0.78507    1.000
    N2670    N        0.44070    0.68036    0.84846    1.000
    Si2671   Si       0.40804    0.68289    0.82022    1.000
    Si2672   Si       0.44594    0.56115    0.87488    1.000
    Si2673   Si       0.44337    0.53452    0.94289    1.000
    N2674    N        0.41445    0.61478    0.95219    1.000
    Si2675   Si       0.43176    0.59725    0.98808    1.000
    N2676    N        0.40872    0.58540    0.88321    1.000
    N2677    N        0.45619    0.56552    0.97270    1.000
    N2678    N        0.40292    0.54709    0.94029    1.000
    N2679    N        0.42448    0.69237    0.96548    1.000
    Si2680   Si       0.45164    0.71787    0.98861    1.000
    Si2681   Si       0.43978    0.64991    0.95716    1.000
    Si2682   Si       0.42833    0.71674    0.87343    1.000
    N2683    N        0.42110    0.79255    0.06664    1.000
    Si2684   Si       0.41418    0.79642    0.10973    1.000
    N2685    N        0.43794    0.83645    0.00825    1.000
    Si2686   Si       0.40851    0.82100    0.03696    1.000
    Si2687   Si       0.44536    0.76323    0.04665    1.000
    N2688    N        0.43501    0.89305    0.09667    1.000
    Si2689   Si       0.44002    0.92743    0.01288    1.000
    N2690    N        0.41728    0.92810    0.05091    1.000
    Si2691   Si       0.43689    0.93702    0.09112    1.000
    Si2692   Si       0.40069    0.89228    0.06989    1.000
    N2693    N        0.41857    0.95651    0.12382    1.000
    N2694    N        0.43953    0.82839    0.12786    1.000
    Si2695   Si       0.43636    0.87264    0.13434    1.000
    Si2696   Si       0.42764    0.79433    0.20058    1.000
    N2697    N        0.42979    0.79847    0.24444    1.000
    N2698    N        0.41393    0.75854    0.13100    1.000
    Si2699   Si       0.44650    0.99984    0.21651    1.000
    N2700    N        0.43158    0.00320    0.17368    1.000
    Si2701   Si       0.40712    0.94577    0.23521    1.000
    N2702    N        0.40900    0.99098    0.23623    1.000
    Si2703   Si       0.40343    0.97260    0.16130    1.000
    Si2704   Si       0.44566    0.83310    0.26956    1.000
    N2705    N        0.41269    0.79906    0.36004    1.000
    N2706    N        0.41180    0.86155    0.26678    1.000
    Si2707   Si       0.44962    0.87479    0.33520    1.000
    Si2708   Si       0.45279    0.79997    0.33874    1.000
    N2709    N        0.45196    0.83563    0.31277    1.000
    N2710    N        0.41727    0.90229    0.32414    1.000
    Si2711   Si       0.40963    0.93359    0.35374    1.000
    N2712    N        0.43770    0.92600    0.25854    1.000
    Si2713   Si       0.41054    0.90408    0.28174    1.000
    N2714    N        0.40142    0.96734    0.32779    1.000
    Si2715   Si       0.41191    0.00847    0.33524    1.000
    N2716    N        0.41310    0.84079    0.49156    1.000
    N2717    N        0.45387    0.76692    0.45177    1.000
    Si2718   Si       0.44260    0.85544    0.41765    1.000
    N2719    N        0.45889    0.86743    0.37788    1.000
    Si2720   Si       0.45621    0.90448    0.47775    1.000
    Si2721   Si       0.45512    0.97602    0.45160    1.000
    N2722    N        0.44256    0.89730    0.43283    1.000
    N2723    N        0.44818    0.93689    0.37688    1.000
    Si2724   Si       0.40684    0.92177    0.42598    1.000
    N2725    N        0.41365    0.96225    0.44030    1.000
    N2726    N        0.44084    0.81570    0.59887    1.000
    Si2727   Si       0.40406    0.81383    0.57569    1.000
    N2728    N        0.39907    0.77834    0.55309    1.000
    N2729    N        0.40182    0.85565    0.56208    1.000
    N2730    N        0.45776    0.88370    0.58026    1.000
    N2731    N        0.40287    0.92680    0.57231    1.000
    Si2732   Si       0.41607    0.88721    0.59199    1.000
    N2733    N        0.43096    0.97634    0.53038    1.000
    N2734    N        0.42686    0.90459    0.51111    1.000
    Si2735   Si       0.40826    0.93872    0.53072    1.000
    N2736    N        0.40737    0.00608    0.60712    1.000
    Si2737   Si       0.42881    0.83141    0.71090    1.000
    N2738    N        0.42465    0.82207    0.66761    1.000
    Si2739   Si       0.43817    0.79616    0.63744    1.000
    N2740    N        0.42421    0.79914    0.73855    1.000
    N2741    N        0.41054    0.76097    0.63138    1.000
    N2742    N        0.41293    0.88168    0.63525    1.000
    Si2743   Si       0.41504    0.91991    0.65937    1.000
    Si2744   Si       0.42613    0.94611    0.73048    1.000
    N2745    N        0.43627    0.92036    0.69679    1.000
    Si2746   Si       0.43932    0.99034    0.63353    1.000
    N2747    N        0.42394    0.95149    0.63170    1.000
    N2748    N        0.43909    0.01021    0.67236    1.000
    N2749    N        0.44022    0.83665    0.79655    1.000
    Si2750   Si       0.41938    0.86248    0.82295    1.000
    Si2751   Si       0.43850    0.79520    0.78008    1.000
    N2752    N        0.40807    0.83870    0.85986    1.000
    N2753    N        0.43140    0.75787    0.85624    1.000
    N2754    N        0.44621    0.89542    0.83277    1.000
    N2755    N        0.42671    0.92390    0.76960    1.000
    N2756    N        0.44614    0.95760    0.82385    1.000
    N2757    N        0.42436    0.99158    0.77188    1.000
    Si2758   Si       0.40886    0.97175    0.80629    1.000
    Si2759   Si       0.42350    0.86009    0.89633    1.000
    N2760    N        0.41249    0.78337    0.94734    1.000
    N2761    N        0.41827    0.84662    0.93892    1.000
    Si2762   Si       0.43676    0.86475    0.97433    1.000
    Si2763   Si       0.45454    0.78096    0.94431    1.000
    N2764    N        0.44445    0.96150    0.98554    1.000
    N2765    N        0.41539    0.89773    0.99048    1.000
    Si2766   Si       0.40457    0.97172    0.97366    1.000
    N2767    N        0.41328    0.00671    0.89730    1.000
    N2768    N        0.43799    0.94393    0.89163    1.000
    Si2769   Si       0.45084    0.98418    0.89222    1.000
    N2770    N        0.50451    0.08690    0.10164    1.000
    Si2771   Si       0.48857    0.08362    0.06079    1.000
    N2772    N        0.49486    0.11736    0.03495    1.000
    N2773    N        0.51206    0.05462    0.04039    1.000
    Si2774   Si       0.49259    0.16016    0.04721    1.000
    N2775    N        0.46638    0.17279    0.01159    1.000
    N2776    N        0.51133    0.16172    0.08984    1.000
    Si2777   Si       0.48043    0.25544    0.04725    1.000
    N2778    N        0.46549    0.06386    0.16107    1.000
    N2779    N        0.46942    0.10509    0.21936    1.000
    Si2780   Si       0.47571    0.09708    0.13159    1.000
    Si2781   Si       0.47882    0.06610    0.20244    1.000
    N2782    N        0.49776    0.12655    0.15419    1.000
    N2783    N        0.46115    0.03864    0.23096    1.000
    N2784    N        0.48184    0.17656    0.20359    1.000
    Si2785   Si       0.51334    0.15067    0.18669    1.000
    N2786    N        0.46101    0.18992    0.13498    1.000
    Si2787   Si       0.49181    0.18500    0.24334    1.000
    Si2788   Si       0.47140    0.09045    0.32664    1.000
    Si2789   Si       0.48395    0.11047    0.26149    1.000
    N2790    N        0.50300    0.05789    0.33061    1.000
    N2791    N        0.49094    0.12880    0.32911    1.000
    Si2792   Si       0.48295    0.01662    0.31934    1.000
    N2793    N        0.50884    0.01274    0.28366    1.000
    Si2794   Si       0.48980    0.23957    0.28740    1.000
    N2795    N        0.49047    0.20688    0.31739    1.000
    Si2796   Si       0.47784    0.21432    0.35721    1.000
    N2797    N        0.48561    0.15154    0.27049    1.000
    Si2798   Si       0.47332    0.16576    0.30929    1.000
    N2799    N        0.46625    0.21869    0.25557    1.000
    N2800    N        0.46187    0.17660    0.37099    1.000
    N2801    N        0.50409    0.10975    0.46284    1.000
    Si2802   Si       0.50550    0.02162    0.41656    1.000
    N2803    N        0.47408    0.05250    0.41610    1.000
    Si2804   Si       0.48460    0.09228    0.42736    1.000
    N2805    N        0.50229    0.10855    0.39202    1.000
    Si2806   Si       0.49890    0.02290    0.48543    1.000
    N2807    N        0.50477    0.22895    0.38857    1.000
    Si2808   Si       0.49986    0.20933    0.42792    1.000
    Si2809   Si       0.47611    0.14374    0.45894    1.000
    N2810    N        0.49153    0.16809    0.42868    1.000
    Si2811   Si       0.49273    0.15052    0.38853    1.000
    N2812    N        0.49293    0.11028    0.58356    1.000
    Si2813   Si       0.49022    0.03743    0.59973    1.000
    N2814    N        0.51737    0.05724    0.50613    1.000
    Si2815   Si       0.49657    0.15324    0.59484    1.000
    Si2816   Si       0.49989    0.21005    0.56173    1.000
    N2817    N        0.47940    0.17113    0.55708    1.000
    N2818    N        0.47810    0.24573    0.57218    1.000
    N2819    N        0.48227    0.24211    0.50450    1.000
    N2820    N        0.51500    0.19848    0.60319    1.000
    N2821    N        0.50045    0.06673    0.63233    1.000
    N2822    N        0.49989    0.02658    0.68409    1.000
    Si2823   Si       0.49388    0.06994    0.67613    1.000
    N2824    N        0.48005    0.13571    0.72177    1.000
    N2825    N        0.46502    0.16719    0.62366    1.000
    N2826    N        0.48163    0.23407    0.71611    1.000
    Si2827   Si       0.48928    0.19856    0.63845    1.000
    N2828    N        0.48079    0.24072    0.64341    1.000
    N2829    N        0.50387    0.18347    0.67592    1.000
    Si2830   Si       0.48489    0.18704    0.71449    1.000
    Si2831   Si       0.48454    0.26017    0.68295    1.000
    Si2832   Si       0.49921    0.04536    0.78131    1.000
    N2833    N        0.47187    0.07704    0.76629    1.000
    Si2834   Si       0.48394    0.11801    0.76033    1.000
    N2835    N        0.47417    0.01811    0.80252    1.000
    Si2836   Si       0.50337    0.12538    0.86576    1.000
    N2837    N        0.50433    0.01694    0.74888    1.000
    N2838    N        0.46384    0.12229    0.84816    1.000
    N2839    N        0.47795    0.23854    0.83689    1.000
    N2840    N        0.51086    0.17949    0.81399    1.000
    Si2841   Si       0.47292    0.20032    0.81439    1.000
    Si2842   Si       0.45985    0.24426    0.75247    1.000
    N2843    N        0.51705    0.18878    0.74646    1.000
    Si2844   Si       0.50043    0.11089    0.99020    1.000
    N2845    N        0.46386    0.10548    0.96793    1.000
    N2846    N        0.48788    0.02044    0.98137    1.000
    N2847    N        0.49725    0.11001    0.90474    1.000
    Si2848   Si       0.47409    0.03032    0.94118    1.000
    N2849    N        0.50443    0.04187    0.91333    1.000
    Si2850   Si       0.51828    0.07889    0.92639    1.000
    Si2851   Si       0.46219    0.12269    0.92739    1.000
    N2852    N        0.46326    0.16532    0.94003    1.000
    N2853    N        0.51906    0.14678    0.97483    1.000
    Si2854   Si       0.48717    0.17596    0.97417    1.000
    N2855    N        0.50691    0.21343    0.97027    1.000
    Si2856   Si       0.48412    0.24371    0.87998    1.000
    Si2857   Si       0.50872    0.24747    0.94437    1.000
    N2858    N        0.47179    0.36500    0.06039    1.000
    Si2859   Si       0.47979    0.33653    0.02826    1.000
    Si2860   Si       0.46647    0.30568    0.09125    1.000
    Si2861   Si       0.48610    0.37412    0.10088    1.000
    N2862    N        0.49525    0.27061    0.08726    1.000
    N2863    N        0.46038    0.29959    0.04566    1.000
    N2864    N        0.48598    0.33372    0.12090    1.000
    N2865    N        0.51780    0.25771    0.01985    1.000
    N2866    N        0.48160    0.46870    0.01410    1.000
    Si2867   Si       0.51861    0.46994    0.03681    1.000
    N2868    N        0.49306    0.50852    0.08922    1.000
    N2869    N        0.48576    0.29009    0.17769    1.000
    Si2870   Si       0.49116    0.33295    0.16386    1.000
    N2871    N        0.48550    0.50753    0.20312    1.000
    N2872    N        0.46134    0.40049    0.12609    1.000
    Si2873   Si       0.51160    0.48886    0.23105    1.000
    Si2874   Si       0.46370    0.41313    0.16850    1.000
    N2875    N        0.50711    0.41605    0.17553    1.000
    N2876    N        0.50379    0.47280    0.14419    1.000
    Si2877   Si       0.46994    0.48665    0.16878    1.000
    N2878    N        0.49964    0.34973    0.33902    1.000
    Si2879   Si       0.47281    0.28571    0.33598    1.000
    N2880    N        0.46746    0.27769    0.29190    1.000
    Si2881   Si       0.46252    0.34688    0.36475    1.000
    Si2882   Si       0.48761    0.39155    0.33194    1.000
    N2883    N        0.47743    0.40891    0.29363    1.000
    Si2884   Si       0.49470    0.48018    0.30409    1.000
    N2885    N        0.50618    0.46184    0.26489    1.000
    N2886    N        0.50374    0.41363    0.36505    1.000
    Si2887   Si       0.51482    0.42115    0.27350    1.000
    Si2888   Si       0.48521    0.34103    0.43928    1.000
    N2889    N        0.47395    0.36353    0.40564    1.000
    N2890    N        0.47743    0.29797    0.42973    1.000
    Si2891   Si       0.48057    0.40576    0.40064    1.000
    N2892    N        0.48802    0.47269    0.48077    1.000
    Si2893   Si       0.51368    0.45885    0.44503    1.000
    N2894    N        0.50044    0.41794    0.43883    1.000
    N2895    N        0.49505    0.47970    0.41225    1.000
    Si2896   Si       0.49325    0.32755    0.58002    1.000
    Si2897   Si       0.47525    0.27172    0.53802    1.000
    N2898    N        0.50499    0.30325    0.54507    1.000
    N2899    N        0.49914    0.29909    0.61327    1.000
    Si2900   Si       0.46985    0.26606    0.61034    1.000
    N2901    N        0.51993    0.35969    0.57198    1.000
    N2902    N        0.47297    0.38192    0.61951    1.000
    N2903    N        0.49900    0.39142    0.50441    1.000
    Si2904   Si       0.50960    0.39482    0.54517    1.000
    Si2905   Si       0.48477    0.46129    0.57183    1.000
    N2906    N        0.49116    0.47505    0.61239    1.000
    N2907    N        0.48188    0.41873    0.56804    1.000
    N2908    N        0.48014    0.50014    0.54696    1.000
    N2909    N        0.48199    0.34339    0.67086    1.000
    Si2910   Si       0.51133    0.31779    0.65119    1.000
    N2911    N        0.47357    0.32952    0.74135    1.000
    N2912    N        0.51661    0.28723    0.68149    1.000
    Si2913   Si       0.47284    0.41078    0.72864    1.000
    Si2914   Si       0.48348    0.38515    0.65946    1.000
    N2915    N        0.47280    0.50644    0.69877    1.000
    N2916    N        0.50904    0.38833    0.73308    1.000
    N2917    N        0.47168    0.30623    0.81065    1.000
    Si2918   Si       0.48974    0.34188    0.83125    1.000
    Si2919   Si       0.49622    0.27120    0.81533    1.000
    Si2920   Si       0.51212    0.34908    0.75346    1.000
    N2921    N        0.46330    0.35834    0.86251    1.000
    N2922    N        0.51697    0.35622    0.79859    1.000
    N2923    N        0.49637    0.25750    0.77375    1.000
    Si2924   Si       0.48120    0.46673    0.78732    1.000
    N2925    N        0.48922    0.50398    0.76072    1.000
    N2926    N        0.51802    0.44716    0.79633    1.000
    Si2927   Si       0.46281    0.49406    0.85251    1.000
    N2928    N        0.46296    0.44753    0.74910    1.000
    N2929    N        0.48750    0.28654    0.88442    1.000
    N2930    N        0.49572    0.33806    0.92922    1.000
    Si2931   Si       0.49889    0.35933    0.89072    1.000
    N2932    N        0.47284    0.27151    0.94685    1.000
    Si2933   Si       0.46927    0.30373    0.91967    1.000
    Si2934   Si       0.49854    0.35011    0.97034    1.000
    N2935    N        0.45890    0.34140    0.98906    1.000
    N2936    N        0.51034    0.45432    0.94539    1.000
    Si2937   Si       0.49362    0.41518    0.93700    1.000
    N2938    N        0.51678    0.39778    0.90319    1.000
    N2939    N        0.50955    0.39266    0.97081    1.000
    Si2940   Si       0.48814    0.48325    0.97245    1.000
    N2941    N        0.48348    0.55294    0.03210    1.000
    Si2942   Si       0.50799    0.60685    0.07816    1.000
    Si2943   Si       0.51039    0.53534    0.05797    1.000
    N2944    N        0.46515    0.59597    0.08278    1.000
    Si2945   Si       0.51840    0.69952    0.01240    1.000
    N2946    N        0.50340    0.64084    0.04996    1.000
    N2947    N        0.47428    0.69324    0.01407    1.000
    Si2948   Si       0.49253    0.72284    0.08197    1.000
    N2949    N        0.50431    0.69350    0.11292    1.000
    Si2950   Si       0.46160    0.65708    0.03480    1.000
    Si2951   Si       0.49030    0.59013    0.24321    1.000
    N2952    N        0.51175    0.57099    0.21092    1.000
    N2953    N        0.51148    0.55846    0.14850    1.000
    Si2954   Si       0.48412    0.54880    0.18212    1.000
    N2955    N        0.48471    0.63133    0.23100    1.000
    Si2956   Si       0.51196    0.64281    0.19980    1.000
    N2957    N        0.49378    0.67550    0.17756    1.000
    Si2958   Si       0.51706    0.70645    0.15347    1.000
    N2959    N        0.49047    0.52152    0.29696    1.000
    Si2960   Si       0.50261    0.60557    0.31608    1.000
    N2961    N        0.46574    0.58145    0.32639    1.000
    N2962    N        0.50235    0.53437    0.36634    1.000
    N2963    N        0.51606    0.58193    0.28133    1.000
    N2964    N        0.48463    0.63880    0.29531    1.000
    Si2965   Si       0.51077    0.65459    0.26288    1.000
    Si2966   Si       0.47961    0.70627    0.36260    1.000
    N2967    N        0.51207    0.73708    0.35806    1.000
    Si2968   Si       0.50599    0.75266    0.31227    1.000
    Si2969   Si       0.51175    0.72514    0.24713    1.000
    N2970    N        0.48708    0.69170    0.25055    1.000
    Si2971   Si       0.45781    0.54156    0.37392    1.000
    N2972    N        0.46469    0.61717    0.38838    1.000
    Si2973   Si       0.50761    0.58761    0.44552    1.000
    N2974    N        0.46699    0.59846    0.45530    1.000
    N2975    N        0.46863    0.54238    0.41599    1.000
    Si2976   Si       0.50783    0.52153    0.40925    1.000
    N2977    N        0.50280    0.67905    0.38883    1.000
    Si2978   Si       0.50546    0.63539    0.38450    1.000
    Si2979   Si       0.47583    0.69161    0.42455    1.000
    N2980    N        0.49358    0.70748    0.46049    1.000
    Si2981   Si       0.46109    0.73362    0.48372    1.000
    Si2982   Si       0.50602    0.61141    0.51636    1.000
    N2983    N        0.47490    0.59333    0.59290    1.000
    N2984    N        0.46665    0.59015    0.52476    1.000
    Si2985   Si       0.49272    0.63343    0.57959    1.000
    Si2986   Si       0.48547    0.50867    0.50362    1.000
    Si2987   Si       0.49238    0.73214    0.53906    1.000
    N2988    N        0.50964    0.66247    0.60688    1.000
    N2989    N        0.49720    0.74395    0.57887    1.000
    N2990    N        0.49424    0.65210    0.50445    1.000
    N2991    N        0.46189    0.70570    0.52134    1.000
    Si2992   Si       0.49918    0.57892    0.62509    1.000
    N2993    N        0.46896    0.62202    0.72175    1.000
    N2994    N        0.50852    0.56582    0.72324    1.000
    Si2995   Si       0.50691    0.52162    0.72232    1.000
    N2996    N        0.49781    0.53933    0.64444    1.000
    Si2997   Si       0.49807    0.60157    0.69653    1.000
    N2998    N        0.47769    0.59887    0.65826    1.000
    Si2999   Si       0.45949    0.53458    0.66775    1.000
    N3000    N        0.48515    0.66671    0.67441    1.000
    Si3001   Si       0.48422    0.68596    0.63569    1.000
    Si3002   Si       0.48872    0.74914    0.67204    1.000
    N3003    N        0.50852    0.72227    0.64344    1.000
    N3004    N        0.47744    0.71783    0.73864    1.000
    N3005    N        0.51836    0.75952    0.70260    1.000
    N3006    N        0.49077    0.58044    0.78635    1.000
    Si3007   Si       0.48752    0.53568    0.79356    1.000
    Si3008   Si       0.50524    0.59899    0.82998    1.000
    Si3009   Si       0.47902    0.62116    0.76688    1.000
    N3010    N        0.46498    0.58259    0.84332    1.000
    N3011    N        0.49765    0.51363    0.83147    1.000
    N3012    N        0.49544    0.63845    0.81080    1.000
    N3013    N        0.49216    0.70258    0.80785    1.000
    Si3014   Si       0.48125    0.67222    0.83615    1.000
    Si3015   Si       0.46257    0.72292    0.78164    1.000
    N3016    N        0.50635    0.52283    0.96646    1.000
    N3017    N        0.46880    0.54735    0.90874    1.000
    Si3018   Si       0.50764    0.53590    0.92363    1.000
    Si3019   Si       0.49456    0.55677    0.98985    1.000
    N3020    N        0.47062    0.72463    0.88900    1.000
    N3021    N        0.50812    0.67152    0.86958    1.000
    Si3022   Si       0.49122    0.69057    0.90584    1.000
    N3023    N        0.47392    0.74189    0.95925    1.000
    N3024    N        0.46725    0.66206    0.92865    1.000
    Si3025   Si       0.51800    0.74033    0.95489    1.000
    N3026    N        0.48470    0.78481    0.03589    1.000
    Si3027   Si       0.47674    0.81837    0.00815    1.000
    N3028    N        0.50465    0.84983    0.02057    1.000
    N3029    N        0.50620    0.76380    0.09643    1.000
    N3030    N        0.47832    0.91286    0.02202    1.000
    N3031    N        0.47693    0.94838    0.08238    1.000
    Si3032   Si       0.50334    0.92283    0.05727    1.000
    Si3033   Si       0.48263    0.99154    0.08203    1.000
    Si3034   Si       0.50115    0.88651    0.99804    1.000
    N3035    N        0.48609    0.76067    0.24115    1.000
    Si3036   Si       0.49382    0.79889    0.22429    1.000
    Si3037   Si       0.47713    0.83139    0.15461    1.000
    N3038    N        0.46815    0.80855    0.18996    1.000
    N3039    N        0.47193    0.87404    0.16215    1.000
    N3040    N        0.51658    0.82242    0.14003    1.000
    Si3041   Si       0.51660    0.86474    0.24157    1.000
    N3042    N        0.51222    0.93304    0.17766    1.000
    N3043    N        0.49497    0.90085    0.23383    1.000
    N3044    N        0.47695    0.97061    0.22376    1.000
    Si3045   Si       0.51411    0.96983    0.20176    1.000
    Si3046   Si       0.49692    0.89521    0.18865    1.000
    N3047    N        0.47892    0.00856    0.12441    1.000
    N3048    N        0.48830    0.80509    0.36468    1.000
    N3049    N        0.48628    0.83414    0.25081    1.000
    N3050    N        0.46411    0.76306    0.31514    1.000
    N3051    N        0.48619    0.89704    0.32654    1.000
    N3052    N        0.48629    0.97797    0.33919    1.000
    N3053    N        0.50560    0.94609    0.28125    1.000
    Si3054   Si       0.49888    0.94007    0.32264    1.000
    Si3055   Si       0.47772    0.93647    0.24964    1.000
    Si3056   Si       0.50834    0.85113    0.45893    1.000
    Si3057   Si       0.48794    0.79359    0.44023    1.000
    N3058    N        0.50756    0.81157    0.47545    1.000
    Si3059   Si       0.49393    0.84281    0.38252    1.000
    N3060    N        0.48164    0.83669    0.42602    1.000
    N3061    N        0.49368    0.88163    0.48545    1.000
    N3062    N        0.51064    0.91624    0.40928    1.000
    N3063    N        0.47044    0.94643    0.47989    1.000
    Si3064   Si       0.46969    0.90682    0.39865    1.000
    N3065    N        0.48015    0.98473    0.41705    1.000
    Si3066   Si       0.46556    0.97809    0.37677    1.000
    Si3067   Si       0.50156    0.79955    0.51665    1.000
    N3068    N        0.48790    0.82649    0.54727    1.000
    Si3069   Si       0.47266    0.84264    0.58395    1.000
    N3070    N        0.47880    0.76268    0.51259    1.000
    N3071    N        0.50038    0.84468    0.61643    1.000
    Si3072   Si       0.47068    0.97018    0.51538    1.000
    Si3073   Si       0.48936    0.91237    0.57554    1.000
    N3074    N        0.48790    0.94219    0.54532    1.000
    N3075    N        0.50861    0.99441    0.51891    1.000
    N3076    N        0.50121    0.92335    0.61440    1.000
    N3077    N        0.47597    0.99763    0.61194    1.000
    N3078    N        0.47926    0.78331    0.64773    1.000
    Si3079   Si       0.50454    0.85682    0.70664    1.000
    N3080    N        0.46876    0.84562    0.72719    1.000
    Si3081   Si       0.50979    0.81175    0.64143    1.000
    Si3082   Si       0.47400    0.99265    0.69192    1.000
    N3083    N        0.48398    0.95895    0.66872    1.000
    N3084    N        0.51243    0.92752    0.72701    1.000
    Si3085   Si       0.50131    0.96324    0.62957    1.000
    Si3086   Si       0.50752    0.88646    0.63531    1.000
    Si3087   Si       0.48094    0.92326    0.69604    1.000
    N3088    N        0.49474    0.88625    0.67617    1.000
    N3089    N        0.46154    0.97201    0.72650    1.000
    N3090    N        0.50708    0.82251    0.78038    1.000
    Si3091   Si       0.47247    0.84806    0.77128    1.000
    Si3092   Si       0.51165    0.78096    0.79698    1.000
    N3093    N        0.50759    0.77538    0.84154    1.000
    N3094    N        0.46869    0.76590    0.78807    1.000
    N3095    N        0.48308    0.88982    0.77854    1.000
    Si3096   Si       0.48854    0.97297    0.82885    1.000
    N3097    N        0.49506    0.95585    0.78861    1.000
    N3098    N        0.49752    0.93428    0.85651    1.000
    Si3099   Si       0.47240    0.98855    0.76694    1.000
    N3100    N        0.48127    0.99769    0.86561    1.000
    Si3101   Si       0.46061    0.92308    0.79755    1.000
    Si3102   Si       0.46033    0.91624    0.86797    1.000
    Si3103   Si       0.47336    0.76525    0.86836    1.000
    N3104    N        0.47480    0.78983    0.90597    1.000
    N3105    N        0.48296    0.80637    0.96631    1.000
    Si3106   Si       0.50865    0.80653    0.92896    1.000
    N3107    N        0.47745    0.87661    0.96156    1.000
    Si3108   Si       0.49640    0.87772    0.92268    1.000
    N3109    N        0.46366    0.88133    0.89616    1.000
    N3110    N        0.46842    0.98863    0.93178    1.000
    Si3111   Si       0.48012    0.97897    0.97185    1.000
    Si3112   Si       0.54646    0.03149    0.05909    1.000
    N3113    N        0.56508    0.06930    0.07631    1.000
    N3114    N        0.55353    0.01628    0.01445    1.000
    Si3115   Si       0.54708    0.07965    0.11280    1.000
    N3116    N        0.56080    0.12108    0.12152    1.000
    Si3117   Si       0.52063    0.04135    0.99910    1.000
    Si3118   Si       0.54276    0.19241    0.07375    1.000
    N3119    N        0.55837    0.23371    0.07882    1.000
    Si3120   Si       0.53283    0.21737    0.00561    1.000
    N3121    N        0.52071    0.19314    0.03847    1.000
    Si3122   Si       0.54772    0.03787    0.18230    1.000
    Si3123   Si       0.54366    0.09598    0.23018    1.000
    N3124    N        0.54804    0.04449    0.13937    1.000
    N3125    N        0.52439    0.06999    0.20165    1.000
    Si3126   Si       0.54527    0.23474    0.24219    1.000
    Si3127   Si       0.54865    0.21476    0.16579    1.000
    N3128    N        0.53183    0.24556    0.13958    1.000
    N3129    N        0.53815    0.17394    0.15897    1.000
    N3130    N        0.53506    0.13677    0.22176    1.000
    N3131    N        0.53086    0.23382    0.20003    1.000
    Si3132   Si       0.52570    0.14693    0.12836    1.000
    N3133    N        0.55720    0.10115    0.35371    1.000
    Si3134   Si       0.52894    0.05194    0.29023    1.000
    N3135    N        0.56950    0.03923    0.28544    1.000
    Si3136   Si       0.52474    0.07392    0.36723    1.000
    N3137    N        0.52053    0.08665    0.26636    1.000
    Si3138   Si       0.53402    0.13536    0.33615    1.000
    N3139    N        0.55381    0.14630    0.29919    1.000
    N3140    N        0.56075    0.22695    0.35040    1.000
    Si3141   Si       0.55372    0.15741    0.25560    1.000
    N3142    N        0.53369    0.19469    0.25286    1.000
    N3143    N        0.52989    0.16473    0.36771    1.000
    N3144    N        0.52911    0.25535    0.27556    1.000
    Si3145   Si       0.56484    0.18782    0.37141    1.000
    Si3146   Si       0.57022    0.01531    0.46803    1.000
    Si3147   Si       0.57344    0.01287    0.38968    1.000
    N3148    N        0.52646    0.01761    0.45406    1.000
    N3149    N        0.53686    0.03982    0.38921    1.000
    Si3150   Si       0.53596    0.09090    0.48521    1.000
    N3151    N        0.56792    0.07214    0.45957    1.000
    Si3152   Si       0.53572    0.25393    0.37388    1.000
    Si3153   Si       0.57037    0.22621    0.43650    1.000
    N3154    N        0.53133    0.22083    0.45437    1.000
    N3155    N        0.56474    0.08398    0.60567    1.000
    Si3156   Si       0.53544    0.02788    0.53405    1.000
    N3157    N        0.55508    0.11632    0.51480    1.000
    N3158    N        0.52628    0.02963    0.57716    1.000
    N3159    N        0.57134    0.01528    0.51463    1.000
    Si3160   Si       0.52444    0.09740    0.61165    1.000
    N3161    N        0.53211    0.21698    0.53404    1.000
    Si3162   Si       0.55748    0.19075    0.60520    1.000
    N3163    N        0.56041    0.16471    0.56950    1.000
    Si3164   Si       0.57252    0.20541    0.54514    1.000
    Si3165   Si       0.52480    0.23573    0.49526    1.000
    N3166    N        0.57398    0.03714    0.73372    1.000
    Si3167   Si       0.54295    0.11031    0.72699    1.000
    Si3168   Si       0.53084    0.02777    0.71540    1.000
    N3169    N        0.56989    0.04005    0.66859    1.000
    N3170    N        0.52428    0.07628    0.70830    1.000
    N3171    N        0.57214    0.18326    0.64350    1.000
    N3172    N        0.52487    0.13705    0.62813    1.000
    N3173    N        0.55280    0.25222    0.72887    1.000
    N3174    N        0.55537    0.14279    0.69797    1.000
    Si3175   Si       0.53862    0.16060    0.66301    1.000
    Si3176   Si       0.54863    0.09901    0.80127    1.000
    N3177    N        0.53284    0.12030    0.83427    1.000
    N3178    N        0.53638    0.05592    0.80016    1.000
    Si3179   Si       0.55898    0.02630    0.82375    1.000
    N3180    N        0.55304    0.04036    0.86517    1.000
    N3181    N        0.52732    0.12111    0.76528    1.000
    N3182    N        0.56710    0.20449    0.85446    1.000
    Si3183   Si       0.55035    0.16081    0.83966    1.000
    Si3184   Si       0.56468    0.24160    0.83076    1.000
    N3185    N        0.57084    0.16493    0.79559    1.000
    Si3186   Si       0.53075    0.16366    0.77907    1.000
    N3187    N        0.55708    0.23503    0.78938    1.000
    Si3188   Si       0.52505    0.23130    0.75530    1.000
    N3189    N        0.55958    0.08132    0.92100    1.000
    N3190    N        0.52675    0.07844    0.97544    1.000
    Si3191   Si       0.56982    0.08811    0.96255    1.000
    Si3192   Si       0.51803    0.01517    0.87936    1.000
    N3193    N        0.52425    0.16389    0.87627    1.000
    N3194    N        0.56918    0.18502    0.92840    1.000
    N3195    N        0.51943    0.23199    0.90358    1.000
    Si3196   Si       0.54487    0.19637    0.89370    1.000
    Si3197   Si       0.55719    0.16314    0.96516    1.000
    N3198    N        0.56838    0.19281    0.99688    1.000
    N3199    N        0.55564    0.30048    0.09165    1.000
    Si3200   Si       0.55565    0.35314    0.02169    1.000
    Si3201   Si       0.55545    0.34385    0.09922    1.000
    Si3202   Si       0.53439    0.26371    0.09902    1.000
    Si3203   Si       0.53701    0.29104    0.99825    1.000
    N3204    N        0.52859    0.37965    0.09661    1.000
    N3205    N        0.51878    0.33178    0.00663    1.000
    N3206    N        0.57833    0.34855    0.05945    1.000
    N3207    N        0.57623    0.30277    0.01384    1.000
    N3208    N        0.54447    0.39439    0.02965    1.000
    Si3209   Si       0.54703    0.41037    0.07041    1.000
    N3210    N        0.52861    0.44993    0.07618    1.000
    N3211    N        0.54254    0.45454    0.00578    1.000
    Si3212   Si       0.52530    0.48049    0.10737    1.000
    Si3213   Si       0.52388    0.26996    0.17608    1.000
    N3214    N        0.55950    0.29044    0.18455    1.000
    Si3215   Si       0.56380    0.33316    0.17807    1.000
    N3216    N        0.52477    0.35321    0.18288    1.000
    N3217    N        0.57763    0.34267    0.13641    1.000
    N3218    N        0.52116    0.39123    0.24380    1.000
    N3219    N        0.56769    0.45518    0.13774    1.000
    Si3220   Si       0.53292    0.44915    0.16630    1.000
    Si3221   Si       0.53100    0.39145    0.20210    1.000
    N3222    N        0.57044    0.41176    0.20518    1.000
    N3223    N        0.54143    0.46898    0.20364    1.000
    Si3224   Si       0.57478    0.45226    0.22363    1.000
    N3225    N        0.55481    0.32287    0.30613    1.000
    Si3226   Si       0.53163    0.32262    0.34289    1.000
    Si3227   Si       0.54956    0.27848    0.30554    1.000
    N3228    N        0.51728    0.27919    0.33988    1.000
    N3229    N        0.54122    0.41396    0.30957    1.000
    Si3230   Si       0.53758    0.43494    0.34762    1.000
    N3231    N        0.52505    0.47404    0.33454    1.000
    N3232    N        0.54939    0.31867    0.38104    1.000
    Si3233   Si       0.56335    0.34139    0.46586    1.000
    N3234    N        0.52536    0.35311    0.45142    1.000
    Si3235   Si       0.57733    0.29881    0.40541    1.000
    N3236    N        0.56197    0.25964    0.40689    1.000
    N3237    N        0.55599    0.46360    0.44043    1.000
    Si3238   Si       0.57295    0.46855    0.40148    1.000
    N3239    N        0.56031    0.40889    0.48257    1.000
    N3240    N        0.57081    0.43293    0.37592    1.000
    Si3241   Si       0.52168    0.39394    0.46827    1.000
    Si3242   Si       0.54473    0.30495    0.53027    1.000
    Si3243   Si       0.56117    0.37229    0.57892    1.000
    N3244    N        0.55557    0.34113    0.50842    1.000
    N3245    N        0.54852    0.27401    0.50073    1.000
    N3246    N        0.52816    0.46580    0.55328    1.000
    N3247    N        0.55417    0.40084    0.54483    1.000
    Si3248   Si       0.56239    0.44269    0.53833    1.000
    N3249    N        0.57334    0.39608    0.61309    1.000
    N3250    N        0.57929    0.38034    0.68896    1.000
    N3251    N        0.54860    0.33858    0.64295    1.000
    Si3252   Si       0.54955    0.28967    0.70986    1.000
    N3253    N        0.54282    0.32275    0.73842    1.000
    Si3254   Si       0.56015    0.38132    0.65054    1.000
    Si3255   Si       0.56566    0.47800    0.69439    1.000
    N3256    N        0.52419    0.40082    0.66750    1.000
    N3257    N        0.56405    0.43990    0.71837    1.000
    N3258    N        0.55003    0.48651    0.65368    1.000
    Si3259   Si       0.54436    0.40278    0.70705    1.000
    Si3260   Si       0.52003    0.50575    0.62662    1.000
    N3261    N        0.53450    0.27341    0.83590    1.000
    Si3262   Si       0.55247    0.35513    0.82775    1.000
    N3263    N        0.52346    0.33632    0.85888    1.000
    Si3264   Si       0.55938    0.45843    0.80525    1.000
    N3265    N        0.56528    0.48070    0.84114    1.000
    N3266    N        0.57147    0.47989    0.77093    1.000
    N3267    N        0.57411    0.38404    0.85231    1.000
    Si3268   Si       0.52890    0.29570    0.87336    1.000
    Si3269   Si       0.57567    0.27467    0.93368    1.000
    N3270    N        0.54017    0.27289    0.95946    1.000
    N3271    N        0.56741    0.28771    0.89188    1.000
    N3272    N        0.56513    0.44392    0.89277    1.000
    N3273    N        0.57941    0.42251    0.96718    1.000
    Si3274   Si       0.54012    0.46994    0.91700    1.000
    Si3275   Si       0.57341    0.46563    0.97785    1.000
    N3276    N        0.52430    0.50464    0.89587    1.000
    Si3277   Si       0.54279    0.41292    0.99260    1.000
    Si3278   Si       0.55817    0.40104    0.89040    1.000
    N3279    N        0.57154    0.48900    0.94370    1.000
    N3280    N        0.56177    0.61475    0.03638    1.000
    Si3281   Si       0.56719    0.57572    0.05148    1.000
    N3282    N        0.53266    0.56898    0.07714    1.000
    Si3283   Si       0.52618    0.62671    0.01459    1.000
    N3284    N        0.55475    0.51435    0.11657    1.000
    Si3285   Si       0.54233    0.55487    0.11822    1.000
    N3286    N        0.52811    0.63394    0.10592    1.000
    N3287    N        0.53905    0.50917    0.04153    1.000
    N3288    N        0.57541    0.67364    0.07387    1.000
    Si3289   Si       0.56928    0.72177    0.07003    1.000
    Si3290   Si       0.52577    0.66871    0.08043    1.000
    Si3291   Si       0.57066    0.75187    0.01502    1.000
    N3292    N        0.52545    0.70680    0.05491    1.000
    N3293    N        0.53708    0.61834    0.17410    1.000
    Si3294   Si       0.54302    0.57511    0.17785    1.000
    N3295    N        0.57036    0.54222    0.19099    1.000
    N3296    N        0.57517    0.57420    0.13941    1.000
    Si3297   Si       0.57544    0.52366    0.22921    1.000
    N3298    N        0.55263    0.68267    0.15975    1.000
    N3299    N        0.54100    0.66024    0.22819    1.000
    N3300    N        0.54341    0.72524    0.21776    1.000
    Si3301   Si       0.55213    0.64216    0.14211    1.000
    Si3302   Si       0.56274    0.68902    0.20152    1.000
    N3303    N        0.52488    0.74969    0.16071    1.000
    N3304    N        0.55887    0.53225    0.31509    1.000
    Si3305   Si       0.52867    0.54053    0.28614    1.000
    Si3306   Si       0.53821    0.51355    0.34957    1.000
    N3307    N        0.53976    0.51787    0.25123    1.000
    N3308    N        0.52612    0.62505    0.34768    1.000
    N3309    N        0.55851    0.69064    0.34050    1.000
    N3310    N        0.54729    0.64369    0.28608    1.000
    Si3311   Si       0.55698    0.64885    0.32743    1.000
    Si3312   Si       0.56808    0.71449    0.30374    1.000
    N3313    N        0.52878    0.72600    0.28683    1.000
    N3314    N        0.53107    0.59506    0.48446    1.000
    N3315    N        0.53298    0.54962    0.43827    1.000
    Si3316   Si       0.56708    0.54421    0.41108    1.000
    Si3317   Si       0.56562    0.62290    0.48067    1.000
    Si3318   Si       0.54650    0.55167    0.48121    1.000
    N3319    N        0.52652    0.61307    0.41549    1.000
    Si3320   Si       0.57074    0.61430    0.41139    1.000
    N3321    N        0.55555    0.50782    0.38990    1.000
    N3322    N        0.56607    0.75187    0.47090    1.000
    N3323    N        0.55298    0.66165    0.46596    1.000
    Si3324   Si       0.55273    0.75686    0.43029    1.000
    Si3325   Si       0.53877    0.70393    0.37793    1.000
    N3326    N        0.55678    0.71402    0.41538    1.000
    Si3327   Si       0.52061    0.68409    0.48602    1.000
    Si3328   Si       0.56761    0.61964    0.55929    1.000
    Si3329   Si       0.56163    0.55654    0.59834    1.000
    N3330    N        0.53386    0.52574    0.58913    1.000
    N3331    N        0.52804    0.52452    0.50872    1.000
    N3332    N        0.52441    0.61754    0.55455    1.000
    Si3333   Si       0.52511    0.50910    0.55098    1.000
    Si3334   Si       0.52512    0.74441    0.61164    1.000
    N3335    N        0.55934    0.71988    0.60146    1.000
    Si3336   Si       0.55006    0.67825    0.60967    1.000
    Si3337   Si       0.55654    0.74907    0.51383    1.000
    N3338    N        0.52962    0.71170    0.51855    1.000
    N3339    N        0.57768    0.65143    0.58563    1.000
    N3340    N        0.54110    0.58862    0.62208    1.000
    Si3341   Si       0.56013    0.61913    0.64848    1.000
    N3342    N        0.53733    0.62173    0.68880    1.000
    Si3343   Si       0.55807    0.62603    0.72766    1.000
    N3344    N        0.57193    0.58763    0.74403    1.000
    N3345    N        0.54910    0.51067    0.71673    1.000
    Si3346   Si       0.52736    0.66576    0.68070    1.000
    Si3347   Si       0.51965    0.72712    0.73314    1.000
    N3348    N        0.54055    0.69311    0.71283    1.000
    N3349    N        0.55589    0.66227    0.64916    1.000
    N3350    N        0.54315    0.54314    0.78053    1.000
    N3351    N        0.55479    0.54848    0.85011    1.000
    N3352    N        0.54831    0.60161    0.80713    1.000
    Si3353   Si       0.53101    0.58092    0.76194    1.000
    Si3354   Si       0.56826    0.56482    0.81240    1.000
    Si3355   Si       0.56793    0.51863    0.75357    1.000
    N3356    N        0.52299    0.62825    0.75412    1.000
    Si3357   Si       0.53353    0.50949    0.85264    1.000
    N3358    N        0.52660    0.60511    0.86898    1.000
    Si3359   Si       0.53792    0.64036    0.79237    1.000
    N3360    N        0.53134    0.74503    0.77419    1.000
    N3361    N        0.55931    0.72733    0.83790    1.000
    Si3362   Si       0.53412    0.71162    0.80385    1.000
    N3363    N        0.55955    0.67715    0.80022    1.000
    Si3364   Si       0.54500    0.59996    0.95113    1.000
    N3365    N        0.53979    0.56429    0.92421    1.000
    Si3366   Si       0.55456    0.57531    0.88433    1.000
    N3367    N        0.52271    0.59192    0.98684    1.000
    N3368    N        0.53897    0.63546    0.92719    1.000
    N3369    N        0.53319    0.66503    0.99254    1.000
    N3370    N        0.52337    0.70338    0.93075    1.000
    Si3371   Si       0.54613    0.67225    0.95127    1.000
    N3372    N        0.53706    0.73364    0.99304    1.000
    Si3373   Si       0.54057    0.64567    0.88285    1.000
    Si3374   Si       0.53914    0.85399    0.04443    1.000
    N3375    N        0.53782    0.82169    0.07450    1.000
    N3376    N        0.57031    0.83968    0.01930    1.000
    N3377    N        0.55663    0.76460    0.05407    1.000
    Si3378   Si       0.51970    0.78377    0.06180    1.000
    Si3379   Si       0.56260    0.89119    0.09855    1.000
    N3380    N        0.53555    0.89252    0.06418    1.000
    Si3381   Si       0.54595    0.97329    0.00980    1.000
    Si3382   Si       0.55576    0.96937    0.08496    1.000
    N3383    N        0.53356    0.95388    0.04860    1.000
    Si3384   Si       0.56828    0.92246    0.04390    1.000
    N3385    N        0.52366    0.00708    0.08439    1.000
    N3386    N        0.57076    0.78668    0.12444    1.000
    Si3387   Si       0.52676    0.78174    0.13031    1.000
    Si3388   Si       0.54272    0.85510    0.15547    1.000
    N3389    N        0.53559    0.79644    0.21080    1.000
    Si3390   Si       0.55777    0.83167    0.21071    1.000
    N3391    N        0.52695    0.86273    0.19519    1.000
    Si3392   Si       0.55164    0.76006    0.19461    1.000
    N3393    N        0.54757    0.96656    0.23041    1.000
    N3394    N        0.52350    0.00338    0.17756    1.000
    Si3395   Si       0.54759    0.93227    0.15202    1.000
    N3396    N        0.54367    0.96649    0.12700    1.000
    N3397    N        0.54221    0.89109    0.13561    1.000
    Si3398   Si       0.52380    0.00780    0.13083    1.000
    Si3399   Si       0.57227    0.78759    0.32311    1.000
    N3400    N        0.53152    0.78673    0.31003    1.000
    N3401    N        0.56283    0.78862    0.36640    1.000
    N3402    N        0.55759    0.85131    0.24985    1.000
    Si3403   Si       0.52638    0.88680    0.33919    1.000
    N3404    N        0.55631    0.88759    0.30927    1.000
    N3405    N        0.53634    0.93062    0.34534    1.000
    Si3406   Si       0.53333    0.97743    0.27177    1.000
    N3407    N        0.56724    0.96894    0.29735    1.000
    Si3408   Si       0.57270    0.92983    0.31860    1.000
    Si3409   Si       0.52156    0.77832    0.37200    1.000
    N3410    N        0.53342    0.86045    0.37341    1.000
    N3411    N        0.54717    0.86069    0.44174    1.000
    Si3412   Si       0.56592    0.86454    0.40168    1.000
    Si3413   Si       0.57841    0.86539    0.47158    1.000
    N3414    N        0.51781    0.77419    0.41524    1.000
    Si3415   Si       0.54568    0.93129    0.38921    1.000
    N3416    N        0.56103    0.97056    0.39865    1.000
    N3417    N        0.54300    0.78851    0.52898    1.000
    Si3418   Si       0.56575    0.82729    0.53550    1.000
    N3419    N        0.55448    0.85766    0.50684    1.000
    N3420    N        0.57023    0.84143    0.57775    1.000
    N3421    N        0.53798    0.78691    0.61885    1.000
    Si3422   Si       0.55663    0.88034    0.58872    1.000
    Si3423   Si       0.52618    0.88691    0.51851    1.000
    N3424    N        0.55645    0.96411    0.56795    1.000
    N3425    N        0.54488    0.92557    0.51224    1.000
    Si3426   Si       0.52870    0.95764    0.53497    1.000
    Si3427   Si       0.55440    0.99960    0.59374    1.000
    N3428    N        0.52359    0.88759    0.56204    1.000
    N3429    N        0.53586    0.86846    0.73572    1.000
    Si3430   Si       0.54743    0.79250    0.70063    1.000
    N3431    N        0.52447    0.82460    0.68129    1.000
    N3432    N        0.55896    0.80044    0.74156    1.000
    N3433    N        0.55061    0.88313    0.63189    1.000
    Si3434   Si       0.56656    0.99753    0.66308    1.000
    N3435    N        0.54626    0.98628    0.69992    1.000
    N3436    N        0.54202    0.97970    0.63148    1.000
    Si3437   Si       0.54965    0.95251    0.72431    1.000
    N3438    N        0.57371    0.92124    0.70648    1.000
    Si3439   Si       0.54383    0.83663    0.76459    1.000
    Si3440   Si       0.55230    0.76959    0.84436    1.000
    N3441    N        0.56020    0.78978    0.80770    1.000
    Si3442   Si       0.57221    0.76871    0.76684    1.000
    N3443    N        0.57489    0.85357    0.79212    1.000
    N3444    N        0.54988    0.91658    0.78761    1.000
    N3445    N        0.53469    0.98882    0.82374    1.000
    Si3446   Si       0.54004    0.95895    0.79208    1.000
    N3447    N        0.56671    0.97245    0.76026    1.000
    Si3448   Si       0.51957    0.90179    0.76073    1.000
    N3449    N        0.52823    0.84484    0.92077    1.000
    N3450    N        0.53472    0.77351    0.93538    1.000
    Si3451   Si       0.57124    0.85113    0.92733    1.000
    N3452    N        0.57491    0.78634    0.87872    1.000
    Si3453   Si       0.57578    0.77449    0.91981    1.000
    N3454    N        0.56489    0.91998    0.87155    1.000
    N3455    N        0.51930    0.91626    0.92260    1.000
    Si3456   Si       0.54205    0.92849    0.95682    1.000
    N3457    N        0.51899    0.96044    0.97744    1.000
    N3458    N        0.54365    0.89954    0.99153    1.000
    Si3459   Si       0.52821    0.93817    0.88586    1.000
    N3460    N        0.53957    0.97942    0.89270    1.000
    N3461    N        0.62035    0.05589    0.03567    1.000
    Si3462   Si       0.60853    0.07329    0.07399    1.000
    N3463    N        0.61977    0.11396    0.08251    1.000
    Si3464   Si       0.59864    0.02708    0.00921    1.000
    N3465    N        0.62349    0.04979    0.10751    1.000
    Si3466   Si       0.59540    0.14368    0.10464    1.000
    Si3467   Si       0.59914    0.23383    0.07217    1.000
    N3468    N        0.61950    0.21362    0.03968    1.000
    N3469    N        0.62127    0.14573    0.02039    1.000
    Si3470   Si       0.59666    0.17927    0.02842    1.000
    N3471    N        0.62649    0.22867    0.10509    1.000
    N3472    N        0.57868    0.16880    0.07072    1.000
    N3473    N        0.58141    0.03576    0.20808    1.000
    Si3474   Si       0.62391    0.02932    0.20294    1.000
    N3475    N        0.58647    0.09418    0.24155    1.000
    N3476    N        0.63250    0.03806    0.24564    1.000
    N3477    N        0.59020    0.23780    0.23374    1.000
    N3478    N        0.61853    0.16707    0.13345    1.000
    N3479    N        0.58924    0.22554    0.16616    1.000
    N3480    N        0.59549    0.16235    0.24455    1.000
    Si3481   Si       0.62500    0.20991    0.14244    1.000
    Si3482   Si       0.61441    0.12350    0.25150    1.000
    N3483    N        0.61959    0.12618    0.29430    1.000
    N3484    N        0.62982    0.10366    0.35669    1.000
    N3485    N        0.59444    0.01332    0.35307    1.000
    Si3486   Si       0.59126    0.05180    0.24959    1.000
    Si3487   Si       0.58678    0.00796    0.30870    1.000
    N3488    N        0.59210    0.15950    0.35240    1.000
    N3489    N        0.60002    0.20050    0.29578    1.000
    Si3490   Si       0.59595    0.15965    0.30816    1.000
    Si3491   Si       0.59614    0.23047    0.32395    1.000
    Si3492   Si       0.60989    0.20308    0.25435    1.000
    N3493    N        0.62947    0.22943    0.35344    1.000
    Si3494   Si       0.59233    0.11989    0.37163    1.000
    N3495    N        0.63216    0.03115    0.48787    1.000
    N3496    N        0.59789    0.01442    0.42689    1.000
    Si3497   Si       0.60350    0.09519    0.44611    1.000
    N3498    N        0.62007    0.11102    0.48309    1.000
    N3499    N        0.59812    0.12438    0.41378    1.000
    Si3500   Si       0.63666    0.03052    0.44385    1.000
    N3501    N        0.62894    0.17463    0.45919    1.000
    N3502    N        0.58270    0.19348    0.41088    1.000
    N3503    N        0.59656    0.23407    0.46838    1.000
    Si3504   Si       0.61557    0.16603    0.41961    1.000
    Si3505   Si       0.61924    0.20422    0.49122    1.000
    N3506    N        0.60258    0.06480    0.54392    1.000
    Si3507   Si       0.60117    0.08763    0.58228    1.000
    N3508    N        0.61215    0.12471    0.55840    1.000
    Si3509   Si       0.61137    0.02816    0.52722    1.000
    N3510    N        0.58947    0.02060    0.60854    1.000
    Si3511   Si       0.62340    0.09747    0.52486    1.000
    N3512    N        0.62810    0.07628    0.61353    1.000
    N3513    N        0.60145    0.23748    0.53333    1.000
    N3514    N        0.59453    0.17798    0.51550    1.000
    Si3515   Si       0.57808    0.14368    0.53529    1.000
    N3516    N        0.58038    0.22034    0.58635    1.000
    Si3517   Si       0.58844    0.06027    0.63445    1.000
    N3518    N        0.59857    0.09835    0.66731    1.000
    N3519    N        0.63023    0.04559    0.69282    1.000
    N3520    N        0.58772    0.10250    0.73113    1.000
    Si3521   Si       0.59549    0.13136    0.69751    1.000
    Si3522   Si       0.58939    0.06305    0.70232    1.000
    Si3523   Si       0.63679    0.10798    0.64459    1.000
    N3524    N        0.63451    0.22033    0.64197    1.000
    N3525    N        0.63338    0.14901    0.62698    1.000
    N3526    N        0.62234    0.16533    0.69261    1.000
    Si3527   Si       0.61439    0.18192    0.65160    1.000
    Si3528   Si       0.60961    0.10891    0.83995    1.000
    N3529    N        0.59123    0.10035    0.80021    1.000
    N3530    N        0.59633    0.01799    0.80245    1.000
    Si3531   Si       0.61366    0.10743    0.76382    1.000
    N3532    N        0.60865    0.07793    0.87157    1.000
    N3533    N        0.63402    0.14928    0.76335    1.000
    N3534    N        0.59373    0.14578    0.85443    1.000
    Si3535   Si       0.60837    0.18562    0.85619    1.000
    Si3536   Si       0.60839    0.17867    0.78442    1.000
    N3537    N        0.62736    0.19816    0.81866    1.000
    Si3538   Si       0.58628    0.24362    0.75675    1.000
    N3539    N        0.60802    0.20752    0.75208    1.000
    Si3540   Si       0.58130    0.05586    0.89446    1.000
    N3541    N        0.58338    0.12738    0.96934    1.000
    Si3542   Si       0.61850    0.02919    0.94775    1.000
    N3543    N        0.59367    0.01973    0.91597    1.000
    N3544    N        0.59157    0.05278    0.97486    1.000
    Si3545   Si       0.60981    0.19805    0.93359    1.000
    N3546    N        0.60477    0.24149    0.94095    1.000
    N3547    N        0.63496    0.17040    0.95851    1.000
    Si3548   Si       0.62595    0.13297    0.97889    1.000
    N3549    N        0.62709    0.19447    0.89425    1.000
    N3550    N        0.61484    0.27575    0.06770    1.000
    N3551    N        0.63019    0.35536    0.09776    1.000
    Si3552   Si       0.61026    0.37882    0.06806    1.000
    Si3553   Si       0.58507    0.30444    0.05771    1.000
    N3554    N        0.63674    0.38684    0.03446    1.000
    N3555    N        0.59602    0.48960    0.00422    1.000
    N3556    N        0.58954    0.41127    0.08505    1.000
    N3557    N        0.60246    0.49218    0.07407    1.000
    N3558    N        0.62731    0.46099    0.11734    1.000
    Si3559   Si       0.59357    0.49211    0.11709    1.000
    Si3560   Si       0.59808    0.42893    0.12399    1.000
    Si3561   Si       0.58275    0.50997    0.03901    1.000
    N3562    N        0.59833    0.34556    0.20317    1.000
    N3563    N        0.62592    0.28430    0.19006    1.000
    Si3564   Si       0.61772    0.35618    0.13911    1.000
    Si3565   Si       0.63728    0.32558    0.20159    1.000
    Si3566   Si       0.58976    0.25950    0.19381    1.000
    Si3567   Si       0.59750    0.38337    0.22510    1.000
    N3568    N        0.61697    0.39973    0.14857    1.000
    N3569    N        0.60044    0.48729    0.22437    1.000
    Si3570   Si       0.58971    0.34879    0.29708    1.000
    N3571    N        0.62705    0.32843    0.28986    1.000
    N3572    N        0.59371    0.26944    0.30868    1.000
    N3573    N        0.59193    0.38210    0.33067    1.000
    Si3574   Si       0.63310    0.28681    0.29907    1.000
    N3575    N        0.59075    0.37994    0.26672    1.000
    N3576    N        0.61865    0.43638    0.31495    1.000
    Si3577   Si       0.61693    0.46732    0.28438    1.000
    Si3578   Si       0.58332    0.41339    0.29655    1.000
    N3579    N        0.58265    0.44543    0.26560    1.000
    N3580    N        0.62383    0.50733    0.30267    1.000
    Si3581   Si       0.59898    0.39822    0.37034    1.000
    N3582    N        0.60441    0.35905    0.47945    1.000
    N3583    N        0.61743    0.29675    0.38593    1.000
    N3584    N        0.60346    0.36670    0.39783    1.000
    Si3585   Si       0.62282    0.32291    0.46538    1.000
    N3586    N        0.58578    0.31031    0.44548    1.000
    Si3587   Si       0.63397    0.33632    0.39737    1.000
    N3588    N        0.61589    0.42758    0.44800    1.000
    N3589    N        0.61611    0.47726    0.40370    1.000
    Si3590   Si       0.62688    0.39519    0.47397    1.000
    Si3591   Si       0.58184    0.44361    0.46975    1.000
    Si3592   Si       0.61147    0.32191    0.54027    1.000
    N3593    N        0.59736    0.35862    0.56003    1.000
    N3594    N        0.62207    0.29701    0.50348    1.000
    Si3595   Si       0.63468    0.35585    0.59162    1.000
    Si3596   Si       0.59141    0.26331    0.50110    1.000
    Si3597   Si       0.59629    0.25899    0.57808    1.000
    N3598    N        0.57877    0.29410    0.55501    1.000
    Si3599   Si       0.58031    0.38045    0.51467    1.000
    N3600    N        0.58693    0.46444    0.50636    1.000
    Si3601   Si       0.60403    0.42477    0.60079    1.000
    Si3602   Si       0.61471    0.47650    0.53732    1.000
    N3603    N        0.59382    0.44798    0.56625    1.000
    N3604    N        0.61912    0.40612    0.51398    1.000
    N3605    N        0.63833    0.40142    0.58891    1.000
    N3606    N        0.58785    0.27920    0.62030    1.000
    N3607    N        0.58395    0.29855    0.68515    1.000
    N3608    N        0.61458    0.33850    0.73982    1.000
    Si3609   Si       0.61575    0.37423    0.71677    1.000
    N3610    N        0.61496    0.34186    0.62949    1.000
    Si3611   Si       0.58489    0.31541    0.64521    1.000
    Si3612   Si       0.62889    0.26313    0.63456    1.000
    N3613    N        0.62178    0.40951    0.73898    1.000
    N3614    N        0.60960    0.45740    0.62896    1.000
    N3615    N        0.60581    0.49383    0.68314    1.000
    Si3616   Si       0.59078    0.49440    0.64186    1.000
    Si3617   Si       0.62312    0.34045    0.81702    1.000
    N3618    N        0.61272    0.32845    0.85740    1.000
    N3619    N        0.60134    0.28248    0.76213    1.000
    N3620    N        0.58345    0.34014    0.79983    1.000
    Si3621   Si       0.58011    0.32165    0.76019    1.000
    N3622    N        0.60557    0.25956    0.83602    1.000
    Si3623   Si       0.60672    0.28827    0.86926    1.000
    N3624    N        0.58483    0.42408    0.79449    1.000
    Si3625   Si       0.59497    0.44321    0.75251    1.000
    Si3626   Si       0.60692    0.40797    0.82756    1.000
    N3627    N        0.62390    0.43892    0.85110    1.000
    Si3628   Si       0.59621    0.46787    0.87017    1.000
    N3629    N        0.63615    0.46649    0.76035    1.000
    Si3630   Si       0.61254    0.36422    0.88293    1.000
    Si3631   Si       0.60647    0.32320    0.98922    1.000
    N3632    N        0.60528    0.30377    0.94947    1.000
    N3633    N        0.58277    0.35890    0.98660    1.000
    N3634    N        0.58661    0.38009    0.91439    1.000
    Si3635   Si       0.63471    0.27370    0.94040    1.000
    Si3636   Si       0.61136    0.50457    0.93513    1.000
    N3637    N        0.61940    0.49873    0.89214    1.000
    Si3638   Si       0.59719    0.38556    0.95520    1.000
    N3639    N        0.60159    0.57448    0.07798    1.000
    N3640    N        0.58601    0.54989    0.02293    1.000
    Si3641   Si       0.60267    0.59860    0.11644    1.000
    Si3642   Si       0.63289    0.58778    0.05263    1.000
    N3643    N        0.62697    0.63089    0.05856    1.000
    Si3644   Si       0.62144    0.54979    0.99796    1.000
    Si3645   Si       0.60035    0.67859    0.10940    1.000
    N3646    N        0.58746    0.72101    0.10971    1.000
    Si3647   Si       0.58948    0.64497    0.04403    1.000
    N3648    N        0.59651    0.72405    0.03358    1.000
    N3649    N        0.60629    0.66490    0.00891    1.000
    Si3650   Si       0.62868    0.70314    0.01301    1.000
    Si3651   Si       0.60439    0.55069    0.16479    1.000
    N3652    N        0.62037    0.51803    0.14261    1.000
    N3653    N        0.62107    0.58137    0.19155    1.000
    Si3654   Si       0.61952    0.58426    0.23594    1.000
    N3655    N        0.60212    0.68199    0.21423    1.000
    N3656    N        0.59285    0.63859    0.12860    1.000
    N3657    N        0.59456    0.75838    0.18285    1.000
    Si3658   Si       0.59822    0.75374    0.13705    1.000
    Si3659   Si       0.59843    0.54136    0.29535    1.000
    Si3660   Si       0.61777    0.61651    0.29802    1.000
    Si3661   Si       0.61515    0.57857    0.35960    1.000
    N3662    N        0.61560    0.57551    0.31505    1.000
    N3663    N        0.60203    0.61891    0.25692    1.000
    N3664    N        0.59997    0.54883    0.25278    1.000
    N3665    N        0.63058    0.53658    0.36551    1.000
    N3666    N        0.59769    0.63516    0.33087    1.000
    N3667    N        0.59214    0.69247    0.27504    1.000
    Si3668   Si       0.61557    0.64885    0.36717    1.000
    N3669    N        0.59294    0.75292    0.30672    1.000
    N3670    N        0.62979    0.74768    0.24788    1.000
    Si3671   Si       0.57480    0.65417    0.25491    1.000
    Si3672   Si       0.62122    0.70511    0.24541    1.000
    Si3673   Si       0.63452    0.75965    0.29240    1.000
    N3674    N        0.57931    0.57911    0.38611    1.000
    Si3675   Si       0.61355    0.56902    0.45981    1.000
    N3676    N        0.60403    0.53619    0.43144    1.000
    N3677    N        0.59149    0.60495    0.44961    1.000
    Si3678   Si       0.63257    0.51766    0.40476    1.000
    Si3679   Si       0.60678    0.74444    0.45413    1.000
    N3680    N        0.61337    0.70030    0.45544    1.000
    N3681    N        0.58787    0.65308    0.40167    1.000
    Si3682   Si       0.57931    0.68093    0.43399    1.000
    Si3683   Si       0.60476    0.56014    0.53413    1.000
    N3684    N        0.61613    0.51795    0.54831    1.000
    N3685    N        0.58465    0.62984    0.51925    1.000
    Si3686   Si       0.62821    0.63047    0.52327    1.000
    N3687    N        0.63742    0.58828    0.53203    1.000
    N3688    N        0.58095    0.57868    0.56538    1.000
    N3689    N        0.58749    0.55721    0.49426    1.000
    Si3690   Si       0.59265    0.73875    0.57933    1.000
    Si3691   Si       0.61756    0.66958    0.59068    1.000
    N3692    N        0.59299    0.74239    0.53551    1.000
    N3693    N        0.62604    0.71409    0.59080    1.000
    Si3694   Si       0.63269    0.74598    0.51728    1.000
    N3695    N        0.58933    0.53525    0.62382    1.000
    N3696    N        0.60201    0.60270    0.64807    1.000
    Si3697   Si       0.62010    0.56281    0.63251    1.000
    Si3698   Si       0.63867    0.62472    0.65042    1.000
    N3699    N        0.60719    0.70817    0.68840    1.000
    Si3700   Si       0.60882    0.74888    0.70429    1.000
    N3701    N        0.58649    0.73492    0.73984    1.000
    Si3702   Si       0.58212    0.69406    0.72184    1.000
    N3703    N        0.59318    0.65288    0.73312    1.000
    N3704    N        0.62813    0.66304    0.63099    1.000
    Si3705   Si       0.63568    0.64300    0.72988    1.000
    Si3706   Si       0.63743    0.68638    0.66690    1.000
    N3707    N        0.61018    0.57139    0.80306    1.000
    Si3708   Si       0.61100    0.57430    0.75947    1.000
    N3709    N        0.60880    0.53224    0.74784    1.000
    N3710    N        0.62585    0.69244    0.83861    1.000
    Si3711   Si       0.58341    0.68980    0.83488    1.000
    Si3712   Si       0.62379    0.66353    0.87184    1.000
    N3713    N        0.59375    0.58815    0.89111    1.000
    Si3714   Si       0.60847    0.58163    0.93236    1.000
    N3715    N        0.61717    0.54490    0.95369    1.000
    N3716    N        0.58760    0.60777    0.96091    1.000
    N3717    N        0.58033    0.65900    0.86705    1.000
    N3718    N        0.59017    0.67839    0.94773    1.000
    Si3719   Si       0.60799    0.64421    0.97214    1.000
    Si3720   Si       0.62161    0.70459    0.93397    1.000
    N3721    N        0.60573    0.74433    0.92464    1.000
    N3722    N        0.61665    0.80264    0.06825    1.000
    Si3723   Si       0.60484    0.81338    0.02666    1.000
    N3724    N        0.58852    0.85582    0.10057    1.000
    Si3725   Si       0.62956    0.86485    0.11515    1.000
    N3726    N        0.62873    0.83454    0.99837    1.000
    N3727    N        0.59694    0.78093    0.99695    1.000
    Si3728   Si       0.57900    0.81389    0.09057    1.000
    Si3729   Si       0.58343    0.87590    0.99757    1.000
    N3730    N        0.60054    0.89280    0.03488    1.000
    Si3731   Si       0.61904    0.93791    0.10343    1.000
    N3732    N        0.58651    0.00086    0.07551    1.000
    N3733    N        0.58266    0.95199    0.01302    1.000
    N3734    N        0.57851    0.93057    0.08693    1.000
    Si3735   Si       0.62290    0.00776    0.09673    1.000
    Si3736   Si       0.62792    0.76852    0.20906    1.000
    Si3737   Si       0.62141    0.84159    0.18413    1.000
    N3738    N        0.62279    0.81226    0.21756    1.000
    N3739    N        0.62578    0.88210    0.20036    1.000
    N3740    N        0.57923    0.83900    0.17368    1.000
    Si3741   Si       0.63663    0.89592    0.24175    1.000
    N3742    N        0.62425    0.98577    0.19915    1.000
    N3743    N        0.62560    0.97428    0.12567    1.000
    Si3744   Si       0.62222    0.91634    0.17333    1.000
    N3745    N        0.61966    0.90383    0.12929    1.000
    N3746    N        0.61483    0.93612    0.23629    1.000
    Si3747   Si       0.58720    0.96125    0.21309    1.000
    N3748    N        0.58279    0.93637    0.17795    1.000
    N3749    N        0.59105    0.82432    0.30803    1.000
    N3750    N        0.63296    0.79501    0.35752    1.000
    Si3751   Si       0.63201    0.82195    0.32316    1.000
    Si3752   Si       0.57924    0.86064    0.28523    1.000
    N3753    N        0.61343    0.88654    0.27784    1.000
    N3754    N        0.60972    0.92335    0.33862    1.000
    N3755    N        0.63081    0.00226    0.30217    1.000
    Si3756   Si       0.63463    0.84271    0.42694    1.000
    Si3757   Si       0.60048    0.79490    0.38737    1.000
    N3758    N        0.60039    0.83731    0.40061    1.000
    N3759    N        0.61501    0.84432    0.46618    1.000
    N3760    N        0.59474    0.76950    0.42066    1.000
    Si3761   Si       0.58127    0.93912    0.49458    1.000
    N3762    N        0.57782    0.97090    0.46714    1.000
    Si3763   Si       0.62301    0.91351    0.38176    1.000
    Si3764   Si       0.63281    0.91636    0.44807    1.000
    N3765    N        0.59451    0.90674    0.46867    1.000
    N3766    N        0.58166    0.90276    0.39289    1.000
    N3767    N        0.62943    0.94725    0.41552    1.000
    Si3768   Si       0.59403    0.96891    0.42632    1.000
    N3769    N        0.60168    0.77945    0.58902    1.000
    N3770    N        0.60848    0.82292    0.52986    1.000
    Si3771   Si       0.61110    0.86098    0.56278    1.000
    Si3772   Si       0.62899    0.79898    0.56199    1.000
    Si3773   Si       0.63608    0.84566    0.50457    1.000
    N3774    N        0.63649    0.88012    0.53072    1.000
    Si3775   Si       0.57406    0.80961    0.60785    1.000
    Si3776   Si       0.62769    0.99877    0.60110    1.000
    Si3777   Si       0.59335    0.94160    0.56611    1.000
    N3778    N        0.61185    0.94458    0.52582    1.000
    N3779    N        0.61952    0.95525    0.59841    1.000
    N3780    N        0.59532    0.90024    0.57915    1.000
    Si3781   Si       0.62902    0.91337    0.61029    1.000
    N3782    N        0.63680    0.00782    0.55858    1.000
    N3783    N        0.58775    0.78232    0.68619    1.000
    Si3784   Si       0.60907    0.81971    0.67762    1.000
    N3785    N        0.59184    0.85660    0.69509    1.000
    N3786    N        0.59450    0.83279    0.63769    1.000
    Si3787   Si       0.58514    0.87299    0.65378    1.000
    Si3788   Si       0.57595    0.88309    0.72493    1.000
    N3789    N        0.60403    0.97397    0.67179    1.000
    Si3790   Si       0.60964    0.93190    0.68256    1.000
    N3791    N        0.61279    0.90581    0.64820    1.000
    Si3792   Si       0.59561    0.81748    0.80138    1.000
    N3793    N        0.62000    0.82729    0.83415    1.000
    N3794    N        0.61363    0.78621    0.77719    1.000
    N3795    N        0.60708    0.89471    0.75490    1.000
    Si3796   Si       0.58850    0.89610    0.79519    1.000
    N3797    N        0.61705    0.91635    0.82508    1.000
    Si3798   Si       0.60857    0.92387    0.86751    1.000
    Si3799   Si       0.59314    0.00704    0.75658    1.000
    Si3800   Si       0.60463    0.81900    0.87539    1.000
    Si3801   Si       0.61627    0.80818    0.96831    1.000
    N3802    N        0.58926    0.81290    0.93493    1.000
    N3803    N        0.59381    0.85720    0.88876    1.000
    N3804    N        0.59368    0.87635    0.95488    1.000
    N3805    N        0.62228    0.99922    0.98116    1.000
    Si3806   Si       0.60450    0.95965    0.97560    1.000
    N3807    N        0.60799    0.96873    0.87690    1.000
    Si3808   Si       0.57918    0.97917    0.90677    1.000
    Si3809   Si       0.63070    0.89722    0.94060    1.000
    N3810    N        0.57587    0.95215    0.94277    1.000
    N3811    N        0.67390    0.10010    0.04200    1.000
    Si3812   Si       0.65606    0.07200    0.01437    1.000
    N3813    N        0.67651    0.03740    0.00214    1.000
    Si3814   Si       0.64696    0.13224    0.05398    1.000
    Si3815   Si       0.66389    0.20534    0.04127    1.000
    N3816    N        0.67093    0.16725    0.06329    1.000
    N3817    N        0.68008    0.23826    0.06436    1.000
    N3818    N        0.68453    0.14277    0.12647    1.000
    N3819    N        0.63858    0.10405    0.15731    1.000
    N3820    N        0.69321    0.05766    0.21107    1.000
    Si3821   Si       0.64786    0.06637    0.13849    1.000
    N3822    N        0.64855    0.03276    0.16775    1.000
    N3823    N        0.65354    0.12197    0.23412    1.000
    Si3824   Si       0.68782    0.10013    0.22062    1.000
    N3825    N        0.69269    0.06792    0.13615    1.000
    Si3826   Si       0.69394    0.03725    0.17108    1.000
    Si3827   Si       0.65111    0.14491    0.15504    1.000
    Si3828   Si       0.68590    0.20843    0.18356    1.000
    N3829    N        0.65862    0.17384    0.18642    1.000
    Si3830   Si       0.66379    0.16294    0.22815    1.000
    N3831    N        0.66072    0.23333    0.15903    1.000
    N3832    N        0.65903    0.04608    0.34983    1.000
    Si3833   Si       0.65124    0.12322    0.32462    1.000
    N3834    N        0.68535    0.09872    0.31623    1.000
    Si3835   Si       0.68960    0.05624    0.32001    1.000
    Si3836   Si       0.65699    0.01485    0.27084    1.000
    N3837    N        0.69306    0.03622    0.27944    1.000
    N3838    N        0.66085    0.16674    0.32699    1.000
    Si3839   Si       0.65374    0.19293    0.36023    1.000
    Si3840   Si       0.67915    0.23408    0.25357    1.000
    Si3841   Si       0.69728    0.18871    0.31554    1.000
    N3842    N        0.65132    0.19919    0.24777    1.000
    N3843    N        0.69073    0.05423    0.46442    1.000
    Si3844   Si       0.67771    0.08528    0.43592    1.000
    Si3845   Si       0.65040    0.07454    0.38000    1.000
    N3846    N        0.68885    0.08887    0.39285    1.000
    N3847    N        0.67346    0.12539    0.45020    1.000
    N3848    N        0.63731    0.06964    0.42599    1.000
    Si3849   Si       0.68444    0.16205    0.42510    1.000
    Si3850   Si       0.68990    0.22472    0.47681    1.000
    Si3851   Si       0.64908    0.14328    0.48065    1.000
    N3852    N        0.65226    0.17102    0.39708    1.000
    N3853    N        0.66446    0.08224    0.52574    1.000
    Si3854   Si       0.67070    0.04889    0.50185    1.000
    Si3855   Si       0.69170    0.11560    0.54029    1.000
    N3856    N        0.68483    0.13189    0.58078    1.000
    N3857    N        0.66974    0.14721    0.51997    1.000
    Si3858   Si       0.67537    0.18568    0.53818    1.000
    N3859    N        0.65307    0.18838    0.57537    1.000
    Si3860   Si       0.65964    0.21842    0.60555    1.000
    Si3861   Si       0.64255    0.14501    0.58494    1.000
    N3862    N        0.65973    0.21303    0.50631    1.000
    N3863    N        0.64170    0.25749    0.59049    1.000
    N3864    N        0.66584    0.10170    0.67564    1.000
    Si3865   Si       0.66120    0.07264    0.70739    1.000
    N3866    N        0.69469    0.04688    0.71684    1.000
    N3867    N        0.65312    0.00729    0.63493    1.000
    Si3868   Si       0.63734    0.18394    0.73068    1.000
    N3869    N        0.69484    0.14551    0.72464    1.000
    N3870    N        0.67615    0.20503    0.73635    1.000
    N3871    N        0.67756    0.04234    0.79744    1.000
    N3872    N        0.65089    0.09957    0.83566    1.000
    Si3873   Si       0.68421    0.08285    0.81371    1.000
    Si3874   Si       0.67330    0.12638    0.75764    1.000
    Si3875   Si       0.64240    0.01496    0.79675    1.000
    N3876    N        0.64973    0.09195    0.74427    1.000
    N3877    N        0.67126    0.23458    0.85924    1.000
    Si3878   Si       0.64360    0.23717    0.82512    1.000
    Si3879   Si       0.68213    0.24734    0.75147    1.000
    N3880    N        0.66702    0.25610    0.79266    1.000
    N3881    N        0.65703    0.02956    0.87158    1.000
    Si3882   Si       0.65402    0.07531    0.87343    1.000
    N3883    N        0.66682    0.09894    0.90767    1.000
    N3884    N        0.64904    0.09506    0.97789    1.000
    Si3885   Si       0.67162    0.07733    0.94631    1.000
    N3886    N        0.65900    0.03641    0.93495    1.000
    Si3887   Si       0.68343    0.01175    0.90752    1.000
    Si3888   Si       0.69133    0.13547    0.90671    1.000
    Si3889   Si       0.67906    0.18224    0.96322    1.000
    N3890    N        0.67906    0.21209    0.93124    1.000
    N3891    N        0.69336    0.17015    0.87893    1.000
    Si3892   Si       0.66795    0.20294    0.88815    1.000
    N3893    N        0.68038    0.19995    0.00225    1.000
    Si3894   Si       0.66488    0.32704    0.09610    1.000
    N3895    N        0.68160    0.30324    0.06533    1.000
    Si3896   Si       0.65280    0.26444    0.08476    1.000
    N3897    N        0.69119    0.35682    0.11242    1.000
    N3898    N        0.65768    0.29049    0.11994    1.000
    N3899    N        0.67236    0.49447    0.07861    1.000
    Si3900   Si       0.67635    0.42546    0.03812    1.000
    N3901    N        0.67152    0.42304    0.08219    1.000
    N3902    N        0.64692    0.45618    0.03022    1.000
    N3903    N        0.68976    0.40197    0.00450    1.000
    Si3904   Si       0.63991    0.46506    0.07427    1.000
    Si3905   Si       0.63894    0.48573    0.99985    1.000
    Si3906   Si       0.69169    0.39973    0.11342    1.000
    Si3907   Si       0.65739    0.27657    0.16113    1.000
    N3908    N        0.66562    0.33431    0.23187    1.000
    N3909    N        0.65111    0.34088    0.16321    1.000
    N3910    N        0.69312    0.29699    0.17909    1.000
    N3911    N        0.69256    0.49220    0.14776    1.000
    Si3912   Si       0.65036    0.48485    0.14767    1.000
    Si3913   Si       0.66517    0.42079    0.24372    1.000
    Si3914   Si       0.64499    0.41855    0.17696    1.000
    Si3915   Si       0.64287    0.48359    0.22277    1.000
    N3916    N        0.68384    0.40871    0.15620    1.000
    N3917    N        0.64541    0.46131    0.18504    1.000
    N3918    N        0.63765    0.40312    0.21497    1.000
    N3919    N        0.66006    0.28761    0.33294    1.000
    Si3920   Si       0.66487    0.34678    0.27369    1.000
    Si3921   Si       0.68407    0.32158    0.34337    1.000
    N3922    N        0.65253    0.26485    0.26789    1.000
    N3923    N        0.66133    0.34893    0.36676    1.000
    Si3924   Si       0.64522    0.26641    0.36858    1.000
    N3925    N        0.67146    0.39007    0.27319    1.000
    N3926    N        0.68539    0.40677    0.33642    1.000
    N3927    N        0.66991    0.47500    0.33611    1.000
    Si3928   Si       0.65231    0.43590    0.33902    1.000
    N3929    N        0.65003    0.45752    0.25662    1.000
    Si3930   Si       0.68456    0.29000    0.42835    1.000
    N3931    N        0.65207    0.32322    0.43413    1.000
    N3932    N        0.67518    0.26523    0.46420    1.000
    N3933    N        0.68007    0.26503    0.39312    1.000
    N3934    N        0.68438    0.32301    0.49534    1.000
    Si3935   Si       0.68775    0.36536    0.49558    1.000
    N3936    N        0.64012    0.41576    0.37760    1.000
    N3937    N        0.67983    0.44418    0.42463    1.000
    N3938    N        0.66884    0.38788    0.46550    1.000
    Si3939   Si       0.67817    0.38916    0.37501    1.000
    Si3940   Si       0.63811    0.44253    0.41321    1.000
    Si3941   Si       0.67260    0.28673    0.57481    1.000
    N3942    N        0.64547    0.32055    0.56713    1.000
    N3943    N        0.68832    0.27229    0.53833    1.000
    Si3944   Si       0.66507    0.28474    0.50298    1.000
    N3945    N        0.67470    0.35837    0.61987    1.000
    N3946    N        0.68114    0.38905    0.53156    1.000
    N3947    N        0.67253    0.49591    0.59367    1.000
    N3948    N        0.65482    0.45856    0.54217    1.000
    Si3949   Si       0.67708    0.40108    0.60999    1.000
    Si3950   Si       0.68814    0.46584    0.56798    1.000
    Si3951   Si       0.64540    0.41421    0.54499    1.000
    N3952    N        0.64644    0.36920    0.68626    1.000
    Si3953   Si       0.65295    0.33863    0.65475    1.000
    N3954    N        0.65062    0.29288    0.65648    1.000
    N3955    N        0.66473    0.28044    0.72791    1.000
    Si3956   Si       0.68108    0.28501    0.68780    1.000
    N3957    N        0.67604    0.43738    0.70675    1.000
    Si3958   Si       0.65822    0.43168    0.74710    1.000
    Si3959   Si       0.64470    0.51158    0.68571    1.000
    Si3960   Si       0.69290    0.45447    0.66893    1.000
    N3961    N        0.68410    0.41810    0.64738    1.000
    N3962    N        0.67418    0.48966    0.65921    1.000
    Si3963   Si       0.67806    0.39808    0.68519    1.000
    Si3964   Si       0.68078    0.29367    0.80987    1.000
    N3965    N        0.65120    0.31983    0.79226    1.000
    N3966    N        0.67983    0.30500    0.85357    1.000
    Si3967   Si       0.68380    0.34892    0.86488    1.000
    Si3968   Si       0.63785    0.30596    0.75297    1.000
    N3969    N        0.63913    0.38121    0.81604    1.000
    Si3970   Si       0.67989    0.39393    0.80649    1.000
    N3971    N        0.67764    0.48574    0.85408    1.000
    Si3972   Si       0.66572    0.44332    0.86016    1.000
    N3973    N        0.68764    0.40667    0.76670    1.000
    N3974    N        0.64031    0.27807    0.89752    1.000
    Si3975   Si       0.68567    0.30615    0.98932    1.000
    Si3976   Si       0.67990    0.27034    0.88020    1.000
    N3977    N        0.67008    0.27334    0.96383    1.000
    N3978    N        0.65668    0.37357    0.88894    1.000
    Si3979   Si       0.65415    0.37519    0.99763    1.000
    N3980    N        0.64916    0.32996    0.99762    1.000
    N3981    N        0.66702    0.44112    0.90388    1.000
    Si3982   Si       0.67394    0.47541    0.93124    1.000
    N3983    N        0.63902    0.47898    0.95658    1.000
    Si3984   Si       0.66510    0.39963    0.92217    1.000
    N3985    N        0.64026    0.38952    0.95882    1.000
    Si3986   Si       0.67971    0.59607    0.09792    1.000
    N3987    N        0.67038    0.57031    0.06537    1.000
    Si3988   Si       0.67868    0.52975    0.05017    1.000
    N3989    N        0.65057    0.52357    0.01688    1.000
    N3990    N        0.63782    0.58754    0.01014    1.000
    N3991    N        0.69227    0.63202    0.07497    1.000
    Si3992   Si       0.65894    0.65804    0.06678    1.000
    N3993    N        0.66533    0.68687    0.03214    1.000
    N3994    N        0.64479    0.67240    0.10538    1.000
    N3995    N        0.66408    0.74788    0.05859    1.000
    Si3996   Si       0.69377    0.71740    0.04874    1.000
    N3997    N        0.64652    0.59523    0.12612    1.000
    N3998    N        0.67137    0.51688    0.22703    1.000
    Si3999   Si       0.68458    0.55799    0.21616    1.000
    Si4000   Si       0.65467    0.59964    0.16940    1.000
    N4001    N        0.68535    0.57023    0.17495    1.000
    N4002    N        0.66225    0.58494    0.24276    1.000
    N4003    N        0.65648    0.64347    0.17400    1.000
    N4004    N        0.66073    0.68493    0.23393    1.000
    N4005    N        0.64960    0.70380    0.16420    1.000
    Si4006   Si       0.66802    0.67001    0.14070    1.000
    Si4007   Si       0.66797    0.74295    0.15367    1.000
    Si4008   Si       0.64022    0.67592    0.19561    1.000
    Si4009   Si       0.68649    0.60482    0.27206    1.000
    N4010    N        0.65944    0.62885    0.29774    1.000
    Si4011   Si       0.65439    0.51673    0.33448    1.000
    N4012    N        0.69269    0.54075    0.34448    1.000
    Si4013   Si       0.67656    0.66012    0.32119    1.000
    N4014    N        0.64746    0.67287    0.35147    1.000
    N4015    N        0.66436    0.74712    0.32109    1.000
    N4016    N        0.63798    0.61172    0.37760    1.000
    Si4017   Si       0.68134    0.62418    0.38117    1.000
    N4018    N        0.67478    0.52280    0.41345    1.000
    N4019    N        0.65581    0.56205    0.46722    1.000
    Si4020   Si       0.68535    0.53423    0.45357    1.000
    Si4021   Si       0.64728    0.68823    0.47820    1.000
    N4022    N        0.65731    0.73346    0.38928    1.000
    N4023    N        0.68446    0.69979    0.46180    1.000
    Si4024   Si       0.67133    0.69494    0.37855    1.000
    N4025    N        0.65100    0.64488    0.48918    1.000
    N4026    N        0.68023    0.66087    0.40655    1.000
    Si4027   Si       0.67877    0.58040    0.53358    1.000
    Si4028   Si       0.65426    0.52605    0.56831    1.000
    N4029    N        0.65089    0.55565    0.59761    1.000
    N4030    N        0.68222    0.53696    0.53779    1.000
    Si4031   Si       0.68627    0.58064    0.60736    1.000
    N4032    N        0.69525    0.59951    0.56915    1.000
    Si4033   Si       0.69388    0.63950    0.49416    1.000
    Si4034   Si       0.66370    0.72745    0.60948    1.000
    Si4035   Si       0.67130    0.68491    0.54863    1.000
    N4036    N        0.65086    0.70764    0.51835    1.000
    N4037    N        0.69187    0.71387    0.57661    1.000
    N4038    N        0.63952    0.65561    0.55830    1.000
    Si4039   Si       0.69149    0.75957    0.56553    1.000
    Si4040   Si       0.67555    0.52104    0.62988    1.000
    N4041    N        0.67604    0.60898    0.63653    1.000
    N4042    N        0.64777    0.54499    0.65942    1.000
    N4043    N        0.66842    0.51522    0.72217    1.000
    N4044    N        0.64110    0.60363    0.74727    1.000
    N4045    N        0.66604    0.71520    0.65217    1.000
    N4046    N        0.65203    0.75144    0.71316    1.000
    N4047    N        0.64690    0.64772    0.68726    1.000
    N4048    N        0.65931    0.67756    0.74399    1.000
    Si4049   Si       0.67195    0.71892    0.73610    1.000
    Si4050   Si       0.64910    0.55972    0.81639    1.000
    N4051    N        0.67763    0.59198    0.80569    1.000
    N4052    N        0.66329    0.52469    0.79266    1.000
    Si4053   Si       0.68284    0.59345    0.76166    1.000
    N4054    N        0.64853    0.55427    0.85831    1.000
    N4055    N        0.64822    0.62795    0.86066    1.000
    Si4056   Si       0.68142    0.62796    0.83024    1.000
    Si4057   Si       0.64243    0.50757    0.75792    1.000
    N4058    N        0.69117    0.71883    0.84079    1.000
    Si4059   Si       0.66008    0.70279    0.81494    1.000
    N4060    N        0.66232    0.73005    0.77879    1.000
    N4061    N        0.68113    0.66546    0.80935    1.000
    Si4062   Si       0.69432    0.66586    0.76824    1.000
    Si4063   Si       0.65864    0.51717    0.87925    1.000
    Si4064   Si       0.67788    0.56185    0.93491    1.000
    N4065    N        0.65064    0.59303    0.92019    1.000
    N4066    N        0.68006    0.51924    0.91680    1.000
    Si4067   Si       0.67023    0.60714    0.99059    1.000
    Si4068   Si       0.63520    0.59028    0.87677    1.000
    Si4069   Si       0.66200    0.63869    0.92562    1.000
    N4070    N        0.64792    0.70820    0.97436    1.000
    Si4071   Si       0.68257    0.72712    0.95840    1.000
    N4072    N        0.65168    0.63995    0.96843    1.000
    N4073    N        0.64084    0.67360    0.91036    1.000
    Si4074   Si       0.68049    0.67248    0.99155    1.000
    N4075    N        0.67280    0.73826    0.91722    1.000
    N4076    N        0.65369    0.86639    0.08148    1.000
    Si4077   Si       0.65122    0.77983    0.08667    1.000
    N4078    N        0.68798    0.80241    0.09502    1.000
    Si4079   Si       0.64171    0.89372    0.05149    1.000
    N4080    N        0.64808    0.93300    0.07166    1.000
    N4081    N        0.66831    0.89212    0.01687    1.000
    Si4082   Si       0.67309    0.96508    0.05923    1.000
    N4083    N        0.67283    0.96366    0.01566    1.000
    N4084    N        0.66247    0.00174    0.07632    1.000
    N4085    N        0.64884    0.84403    0.14907    1.000
    N4086    N        0.69284    0.80985    0.23604    1.000
    Si4087   Si       0.69300    0.84618    0.16050    1.000
    N4088    N        0.66907    0.76233    0.19344    1.000
    N4089    N        0.63936    0.76186    0.12445    1.000
    Si4090   Si       0.64990    0.82170    0.25072    1.000
    N4091    N        0.65853    0.93990    0.17851    1.000
    Si4092   Si       0.65024    0.95591    0.22080    1.000
    Si4093   Si       0.65002    0.98491    0.16212    1.000
    N4094    N        0.67420    0.92001    0.23226    1.000
    Si4095   Si       0.69531    0.91641    0.18889    1.000
    N4096    N        0.69366    0.99294    0.14852    1.000
    N4097    N        0.64907    0.86025    0.32931    1.000
    N4098    N        0.65311    0.80110    0.28959    1.000
    Si4099   Si       0.68437    0.87371    0.34999    1.000
    Si4100   Si       0.66424    0.76408    0.36200    1.000
    N4101    N        0.66598    0.86221    0.25445    1.000
    Si4102   Si       0.63869    0.00752    0.34462    1.000
    N4103    N        0.67158    0.97837    0.25200    1.000
    N4104    N        0.66809    0.92927    0.30270    1.000
    Si4105   Si       0.67959    0.94333    0.34272    1.000
    N4106    N        0.66211    0.97726    0.36297    1.000
    Si4107   Si       0.68932    0.94209    0.26703    1.000
    N4108    N        0.66737    0.91046    0.36824    1.000
    Si4109   Si       0.63519    0.89950    0.31219    1.000
    Si4110   Si       0.67107    0.79294    0.47080    1.000
    N4111    N        0.66704    0.81332    0.43219    1.000
    N4112    N        0.63773    0.76535    0.47805    1.000
    N4113    N        0.64628    0.88500    0.42119    1.000
    Si4114   Si       0.66850    0.96821    0.40655    1.000
    N4115    N        0.66226    0.92370    0.47880    1.000
    N4116    N        0.66951    0.00517    0.42952    1.000
    Si4117   Si       0.68866    0.89579    0.41092    1.000
    Si4118   Si       0.67645    0.85081    0.59804    1.000
    N4119    N        0.65452    0.77014    0.54582    1.000
    N4120    N        0.67904    0.76971    0.60920    1.000
    N4121    N        0.67395    0.82652    0.50126    1.000
    N4122    N        0.64001    0.83525    0.58342    1.000
    N4123    N        0.66829    0.89590    0.60653    1.000
    N4124    N        0.67812    0.94953    0.54090    1.000
    Si4125   Si       0.65014    0.92162    0.52072    1.000
    Si4126   Si       0.67924    0.99258    0.55342    1.000
    Si4127   Si       0.67489    0.78754    0.70712    1.000
    N4128    N        0.64954    0.82121    0.69113    1.000
    Si4129   Si       0.68395    0.84983    0.67751    1.000
    N4130    N        0.68688    0.83559    0.63646    1.000
    N4131    N        0.67623    0.87285    0.74298    1.000
    Si4132   Si       0.64775    0.90587    0.74351    1.000
    N4133    N        0.64626    0.92490    0.70486    1.000
    Si4134   Si       0.63790    0.00514    0.67493    1.000
    N4135    N        0.66980    0.98806    0.69927    1.000
    N4136    N        0.69124    0.95007    0.64579    1.000
    Si4137   Si       0.68137    0.94666    0.68763    1.000
    Si4138   Si       0.69387    0.99274    0.63038    1.000
    Si4139   Si       0.67628    0.01207    0.73404    1.000
    N4140    N        0.67137    0.78079    0.81720    1.000
    Si4141   Si       0.66013    0.81103    0.84632    1.000
    Si4142   Si       0.65403    0.77175    0.77643    1.000
    N4143    N        0.68642    0.78655    0.74927    1.000
    N4144    N        0.69424    0.83558    0.86260    1.000
    Si4145   Si       0.65312    0.93821    0.81268    1.000
    N4146    N        0.66757    0.93246    0.77281    1.000
    N4147    N        0.65157    0.98091    0.82216    1.000
    N4148    N        0.68607    0.92362    0.83882    1.000
    Si4149   Si       0.64424    0.98702    0.86532    1.000
    N4150    N        0.63740    0.01001    0.75506    1.000
    Si4151   Si       0.69142    0.79970    0.96145    1.000
    N4152    N        0.64120    0.79504    0.88378    1.000
    N4153    N        0.65156    0.78996    0.95237    1.000
    N4154    N        0.66509    0.87372    0.95378    1.000
    Si4155   Si       0.64269    0.76776    0.91512    1.000
    Si4156   Si       0.66632    0.85525    0.99351    1.000
    N4157    N        0.63776    0.91281    0.89779    1.000
    Si4158   Si       0.67693    0.92405    0.88370    1.000
    Si4159   Si       0.67080    0.92762    0.99190    1.000
    Si4160   Si       0.66616    0.99820    0.98743    1.000
    N4161    N        0.63649    0.93243    0.96523    1.000
    N4162    N        0.67360    0.97066    0.89225    1.000
    Si4163   Si       0.71674    0.10898    0.04356    1.000
    N4164    N        0.72960    0.02545    0.09573    1.000
    N4165    N        0.73916    0.08104    0.06407    1.000
    N4166    N        0.73972    0.02374    0.01909    1.000
    Si4167   Si       0.74737    0.03959    0.05853    1.000
    N4168    N        0.72937    0.13470    0.01002    1.000
    N4169    N        0.73409    0.14086    0.07153    1.000
    N4170    N        0.73933    0.20576    0.03501    1.000
    Si4171   Si       0.72387    0.23042    0.06762    1.000
    N4172    N        0.72573    0.20113    0.09999    1.000
    Si4173   Si       0.70333    0.16446    0.09356    1.000
    Si4174   Si       0.74973    0.16324    0.03817    1.000
    Si4175   Si       0.73245    0.05501    0.12718    1.000
    N4176    N        0.73750    0.03539    0.16716    1.000
    N4177    N        0.70246    0.11812    0.18486    1.000
    N4178    N        0.74782    0.09836    0.13193    1.000
    Si4179   Si       0.70530    0.10985    0.14421    1.000
    N4180    N        0.72148    0.18970    0.16859    1.000
    Si4181   Si       0.72557    0.15448    0.19459    1.000
    N4182    N        0.69987    0.23957    0.21438    1.000
    Si4183   Si       0.74472    0.20708    0.13948    1.000
    N4184    N        0.70929    0.16722    0.23179    1.000
    N4185    N        0.73449    0.24869    0.14750    1.000
    N4186    N        0.72630    0.04563    0.34184    1.000
    Si4187   Si       0.72136    0.11480    0.29335    1.000
    N4188    N        0.71575    0.09693    0.25445    1.000
    Si4189   Si       0.71639    0.05359    0.24871    1.000
    N4190    N        0.71991    0.15833    0.29580    1.000
    N4191    N        0.70461    0.22285    0.28726    1.000
    Si4192   Si       0.74283    0.24270    0.29559    1.000
    Si4193   Si       0.74376    0.17791    0.26468    1.000
    Si4194   Si       0.71154    0.24797    0.36430    1.000
    N4195    N        0.69258    0.21266    0.35219    1.000
    Si4196   Si       0.72227    0.06833    0.37963    1.000
    N4197    N        0.73082    0.04174    0.41083    1.000
    Si4198   Si       0.70865    0.02227    0.44096    1.000
    N4199    N        0.72372    0.15725    0.40917    1.000
    N4200    N        0.72808    0.23577    0.49335    1.000
    N4201    N        0.74572    0.23742    0.39128    1.000
    N4202    N        0.74524    0.15185    0.49256    1.000
    Si4203   Si       0.74177    0.16312    0.45058    1.000
    N4204    N        0.70051    0.18875    0.45510    1.000
    N4205    N        0.72980    0.09447    0.53443    1.000
    Si4206   Si       0.73168    0.04917    0.53478    1.000
    N4207    N        0.74561    0.04555    0.57745    1.000
    N4208    N        0.69642    0.02365    0.52691    1.000
    Si4209   Si       0.71425    0.14385    0.61110    1.000
    N4210    N        0.71873    0.19151    0.54347    1.000
    Si4211   Si       0.72737    0.20865    0.58175    1.000
    N4212    N        0.74468    0.17387    0.60211    1.000
    N4213    N        0.74385    0.24543    0.56415    1.000
    N4214    N        0.70191    0.22794    0.61111    1.000
    N4215    N        0.73595    0.10730    0.61985    1.000
    Si4216   Si       0.73522    0.06113    0.71476    1.000
    N4217    N        0.73303    0.09674    0.69133    1.000
    Si4218   Si       0.69930    0.12660    0.68553    1.000
    Si4219   Si       0.71574    0.18444    0.73755    1.000
    N4220    N        0.70349    0.15382    0.65309    1.000
    Si4221   Si       0.73700    0.24076    0.70331    1.000
    N4222    N        0.72328    0.25047    0.74366    1.000
    N4223    N        0.74205    0.19555    0.70446    1.000
    N4224    N        0.71237    0.25983    0.67321    1.000
    Si4225   Si       0.73296    0.03885    0.85789    1.000
    Si4226   Si       0.71866    0.02945    0.78161    1.000
    N4227    N        0.74182    0.05905    0.75880    1.000
    N4228    N        0.70892    0.07396    0.84749    1.000
    N4229    N        0.74405    0.02022    0.81978    1.000
    Si4230   Si       0.74266    0.09934    0.85977    1.000
    N4231    N        0.69971    0.11453    0.78804    1.000
    N4232    N        0.74145    0.13535    0.83478    1.000
    Si4233   Si       0.73589    0.13732    0.79116    1.000
    N4234    N        0.73582    0.17799    0.77689    1.000
    Si4235   Si       0.73547    0.16557    0.86798    1.000
    N4236    N        0.75573    0.19915    0.84746    1.000
    N4237    N        0.72493    0.01942    0.89682    1.000
    Si4238   Si       0.71801    0.03523    0.98169    1.000
    N4239    N        0.73214    0.12100    0.89555    1.000
    N4240    N        0.71270    0.07649    0.96478    1.000
    Si4241   Si       0.72503    0.11745    0.97078    1.000
    N4242    N        0.73802    0.24230    0.96225    1.000
    N4243    N        0.69692    0.14463    0.94970    1.000
    Si4244   Si       0.69955    0.24779    0.94481    1.000
    Si4245   Si       0.72263    0.29957    0.05378    1.000
    N4246    N        0.72100    0.29136    0.01092    1.000
    N4247    N        0.74550    0.26815    0.07841    1.000
    N4248    N        0.74689    0.33539    0.06054    1.000
    Si4249   Si       0.74577    0.35544    0.10133    1.000
    Si4250   Si       0.74806    0.27911    0.12040    1.000
    N4251    N        0.73349    0.39904    0.10390    1.000
    N4252    N        0.71443    0.44929    0.03656    1.000
    N4253    N        0.73745    0.47049    0.10272    1.000
    Si4254   Si       0.71215    0.47959    0.06793    1.000
    N4255    N        0.73547    0.31960    0.12874    1.000
    N4256    N        0.71626    0.35678    0.18520    1.000
    Si4257   Si       0.72375    0.26495    0.18623    1.000
    Si4258   Si       0.70550    0.32613    0.21384    1.000
    Si4259   Si       0.69847    0.33435    0.15214    1.000
    N4260    N        0.73244    0.32856    0.24799    1.000
    N4261    N        0.70380    0.42068    0.22326    1.000
    Si4262   Si       0.73372    0.49475    0.13722    1.000
    Si4263   Si       0.71472    0.40036    0.18573    1.000
    N4264    N        0.73764    0.48309    0.23050    1.000
    N4265    N        0.75147    0.41378    0.17387    1.000
    Si4266   Si       0.73430    0.34143    0.29010    1.000
    N4267    N        0.72246    0.32382    0.36512    1.000
    N4268    N        0.73649    0.26531    0.33045    1.000
    N4269    N        0.74206    0.38243    0.29272    1.000
    N4270    N        0.69375    0.33567    0.30244    1.000
    N4271    N        0.71354    0.44245    0.28526    1.000
    N4272    N        0.73919    0.47511    0.34459    1.000
    Si4273   Si       0.70685    0.47568    0.31623    1.000
    Si4274   Si       0.70384    0.40283    0.29871    1.000
    Si4275   Si       0.73514    0.44101    0.24791    1.000
    Si4276   Si       0.72705    0.31971    0.47863    1.000
    N4277    N        0.72232    0.31139    0.43480    1.000
    Si4278   Si       0.73267    0.34282    0.40388    1.000
    N4279    N        0.73050    0.36448    0.48264    1.000
    N4280    N        0.70836    0.38109    0.40657    1.000
    N4281    N        0.69651    0.49648    0.47483    1.000
    N4282    N        0.74734    0.48781    0.42787    1.000
    Si4283   Si       0.71262    0.46666    0.44685    1.000
    N4284    N        0.73044    0.42919    0.46069    1.000
    Si4285   Si       0.69891    0.40722    0.43860    1.000
    Si4286   Si       0.75072    0.40223    0.48590    1.000
    N4287    N        0.72571    0.36047    0.57455    1.000
    Si4288   Si       0.71314    0.33745    0.61058    1.000
    N4289    N        0.74902    0.29819    0.50858    1.000
    N4290    N        0.70280    0.29630    0.60709    1.000
    Si4291   Si       0.73055    0.26310    0.52738    1.000
    Si4292   Si       0.71735    0.39912    0.55406    1.000
    N4293    N        0.72089    0.47828    0.54101    1.000
    N4294    N        0.74678    0.41424    0.52650    1.000
    N4295    N        0.69933    0.42601    0.58310    1.000
    Si4296   Si       0.73337    0.34896    0.68050    1.000
    N4297    N        0.74128    0.35371    0.63816    1.000
    Si4298   Si       0.71940    0.26129    0.63002    1.000
    N4299    N        0.69712    0.32542    0.67860    1.000
    Si4300   Si       0.75099    0.41847    0.69091    1.000
    N4301    N        0.71954    0.38742    0.69846    1.000
    Si4302   Si       0.72337    0.39383    0.74352    1.000
    N4303    N        0.73590    0.45325    0.66987    1.000
    N4304    N        0.75109    0.42898    0.73336    1.000
    N4305    N        0.72215    0.29720    0.79573    1.000
    Si4306   Si       0.73159    0.33990    0.80044    1.000
    N4307    N        0.73656    0.35765    0.76219    1.000
    Si4308   Si       0.74685    0.26992    0.77335    1.000
    N4309    N        0.70483    0.36253    0.82520    1.000
    Si4310   Si       0.72153    0.48423    0.85193    1.000
    N4311    N        0.72143    0.49805    0.75837    1.000
    Si4312   Si       0.74451    0.42890    0.82304    1.000
    N4313    N        0.74611    0.47449    0.81775    1.000
    N4314    N        0.69871    0.42735    0.83310    1.000
    Si4315   Si       0.72750    0.35928    0.93153    1.000
    N4316    N        0.71238    0.33043    0.96205    1.000
    N4317    N        0.71964    0.35067    0.88914    1.000
    Si4318   Si       0.74770    0.30506    0.97426    1.000
    N4319    N        0.71353    0.26498    0.90662    1.000
    N4320    N        0.70398    0.39557    0.93745    1.000
    N4321    N        0.74238    0.46482    0.88498    1.000
    Si4322   Si       0.74601    0.46848    0.92908    1.000
    N4323    N        0.70980    0.45994    0.95072    1.000
    Si4324   Si       0.71300    0.42056    0.97258    1.000
    N4325    N        0.72187    0.51772    0.04851    1.000
    N4326    N        0.74841    0.59350    0.03019    1.000
    Si4327   Si       0.72211    0.62588    0.04360    1.000
    N4328    N        0.69994    0.63417    0.00796    1.000
    Si4329   Si       0.73001    0.63840    0.10799    1.000
    N4330    N        0.72826    0.71197    0.02079    1.000
    N4331    N        0.72310    0.70590    0.07847    1.000
    Si4332   Si       0.73767    0.75165    0.00338    1.000
    N4333    N        0.75093    0.64955    0.06894    1.000
    Si4334   Si       0.73073    0.70808    0.12171    1.000
    N4335    N        0.71695    0.59651    0.11790    1.000
    Si4336   Si       0.72393    0.56991    0.15167    1.000
    N4337    N        0.72443    0.55167    0.23531    1.000
    N4338    N        0.74933    0.53431    0.14116    1.000
    N4339    N        0.74817    0.58796    0.18170    1.000
    N4340    N        0.70649    0.74427    0.13438    1.000
    Si4341   Si       0.73954    0.73815    0.24654    1.000
    N4342    N        0.71101    0.67005    0.13212    1.000
    N4343    N        0.73080    0.69630    0.23027    1.000
    Si4344   Si       0.72274    0.54448    0.31064    1.000
    N4345    N        0.72139    0.58869    0.29807    1.000
    Si4346   Si       0.73591    0.61469    0.33138    1.000
    Si4347   Si       0.74817    0.61497    0.26646    1.000
    N4348    N        0.70956    0.50956    0.28921    1.000
    N4349    N        0.71277    0.63271    0.25087    1.000
    Si4350   Si       0.71013    0.51204    0.24629    1.000
    N4351    N        0.70375    0.63707    0.34712    1.000
    N4352    N        0.70725    0.75032    0.27273    1.000
    N4353    N        0.70664    0.70172    0.35219    1.000
    Si4354   Si       0.74950    0.70821    0.35162    1.000
    Si4355   Si       0.69938    0.67393    0.24988    1.000
    N4356    N        0.74346    0.74865    0.33144    1.000
    Si4357   Si       0.70115    0.72620    0.31243    1.000
    N4358    N        0.69458    0.68792    0.29093    1.000
    N4359    N        0.70645    0.59120    0.39357    1.000
    N4360    N        0.72484    0.55534    0.45196    1.000
    N4361    N        0.74439    0.53956    0.38902    1.000
    Si4362   Si       0.73890    0.57549    0.48927    1.000
    Si4363   Si       0.69900    0.54876    0.38638    1.000
    Si4364   Si       0.74920    0.58339    0.39574    1.000
    Si4365   Si       0.70786    0.67557    0.43646    1.000
    N4366    N        0.74372    0.69845    0.44610    1.000
    Si4367   Si       0.71729    0.72693    0.47087    1.000
    N4368    N        0.72138    0.64352    0.46093    1.000
    N4369    N        0.70325    0.59649    0.50232    1.000
    N4370    N        0.74711    0.53559    0.51228    1.000
    Si4371   Si       0.70976    0.51270    0.51443    1.000
    Si4372   Si       0.71937    0.63727    0.56352    1.000
    Si4373   Si       0.72835    0.69901    0.59633    1.000
    N4374    N        0.71705    0.65793    0.60268    1.000
    N4375    N        0.74307    0.72769    0.50731    1.000
    N4376    N        0.70302    0.66009    0.53225    1.000
    N4377    N        0.70976    0.54739    0.62285    1.000
    N4378    N        0.74463    0.60279    0.62758    1.000
    N4379    N        0.74372    0.51542    0.69668    1.000
    Si4380   Si       0.73901    0.62706    0.71996    1.000
    Si4381   Si       0.71077    0.52041    0.72383    1.000
    N4382    N        0.72774    0.63224    0.67943    1.000
    Si4383   Si       0.71462    0.63194    0.63805    1.000
    Si4384   Si       0.75295    0.54220    0.62210    1.000
    Si4385   Si       0.74438    0.70096    0.72700    1.000
    N4386    N        0.70770    0.71473    0.70910    1.000
    N4387    N        0.73244    0.71818    0.63675    1.000
    Si4388   Si       0.70361    0.73095    0.66762    1.000
    Si4389   Si       0.70544    0.53049    0.78416    1.000
    N4390    N        0.74357    0.54049    0.80137    1.000
    N4391    N        0.72731    0.52614    0.86297    1.000
    N4392    N        0.70999    0.55988    0.75183    1.000
    N4393    N        0.70571    0.62902    0.74819    1.000
    Si4394   Si       0.75106    0.56959    0.76218    1.000
    N4395    N        0.72031    0.63858    0.84957    1.000
    Si4396   Si       0.71886    0.68385    0.84576    1.000
    N4397    N        0.72382    0.69629    0.76544    1.000
    Si4398   Si       0.75209    0.71878    0.78890    1.000
    Si4399   Si       0.72352    0.53044    0.90598    1.000
    Si4400   Si       0.73503    0.58028    0.99064    1.000
    N4401    N        0.71697    0.57308    0.91318    1.000
    Si4402   Si       0.73680    0.61048    0.92548    1.000
    N4403    N        0.69377    0.57522    0.97576    1.000
    N4404    N        0.70740    0.69279    0.96441    1.000
    N4405    N        0.72165    0.69764    0.89196    1.000
    Si4406   Si       0.69946    0.73303    0.88259    1.000
    Si4407   Si       0.72454    0.67671    0.92859    1.000
    N4408    N        0.70493    0.63919    0.92287    1.000
    N4409    N        0.70430    0.75963    0.97579    1.000
    N4410    N        0.72206    0.85365    0.05684    1.000
    Si4411   Si       0.72980    0.82407    0.02623    1.000
    N4412    N        0.73957    0.78126    0.03483    1.000
    Si4413   Si       0.69274    0.84526    0.08671    1.000
    N4414    N        0.69793    0.82592    0.99599    1.000
    N4415    N        0.71078    0.96271    0.08348    1.000
    N4416    N        0.75307    0.90763    0.09338    1.000
    Si4417   Si       0.75148    0.95051    0.09101    1.000
    Si4418   Si       0.69709    0.99801    0.10618    1.000
    Si4419   Si       0.71762    0.78646    0.12364    1.000
    N4420    N        0.71538    0.85700    0.12244    1.000
    Si4421   Si       0.70204    0.85344    0.23446    1.000
    Si4422   Si       0.70517    0.78456    0.20166    1.000
    N4423    N        0.74160    0.76851    0.21445    1.000
    N4424    N        0.70995    0.80699    0.16474    1.000
    N4425    N        0.70274    0.87229    0.19327    1.000
    N4426    N        0.71168    0.92206    0.14620    1.000
    N4427    N        0.72586    0.94616    0.20030    1.000
    Si4428   Si       0.72481    0.96309    0.15822    1.000
    Si4429   Si       0.73835    0.89242    0.13089    1.000
    Si4430   Si       0.75247    0.93784    0.23341    1.000
    Si4431   Si       0.73060    0.78848    0.34396    1.000
    N4432    N        0.72088    0.81044    0.30731    1.000
    Si4433   Si       0.74213    0.84860    0.30060    1.000
    N4434    N        0.73914    0.85694    0.25760    1.000
    N4435    N        0.72003    0.87701    0.32545    1.000
    Si4436   Si       0.69658    0.79123    0.27880    1.000
    N4437    N        0.72269    0.95075    0.34189    1.000
    N4438    N        0.73214    0.93738    0.27199    1.000
    Si4439   Si       0.75052    0.95111    0.30697    1.000
    N4440    N        0.70103    0.78737    0.37327    1.000
    N4441    N        0.73746    0.82025    0.42713    1.000
    Si4442   Si       0.74434    0.85410    0.45358    1.000
    N4443    N        0.70921    0.76872    0.47713    1.000
    Si4444   Si       0.70011    0.81793    0.40485    1.000
    N4445    N        0.70965    0.88086    0.44925    1.000
    N4446    N        0.69846    0.85791    0.38809    1.000
    Si4447   Si       0.74049    0.94669    0.43537    1.000
    N4448    N        0.69965    0.93971    0.41942    1.000
    N4449    N        0.74852    0.99167    0.44398    1.000
    N4450    N        0.73875    0.93288    0.47650    1.000
    Si4451   Si       0.70423    0.90826    0.48236    1.000
    Si4452   Si       0.73747    0.81189    0.57457    1.000
    N4453    N        0.72750    0.77726    0.54963    1.000
    N4454    N        0.74244    0.79975    0.61620    1.000
    N4455    N        0.70616    0.83943    0.56709    1.000
    Si4456   Si       0.70659    0.84958    0.52523    1.000
    Si4457   Si       0.74017    0.77105    0.50974    1.000
    N4458    N        0.74025    0.84370    0.49682    1.000
    N4459    N        0.70503    0.89330    0.52311    1.000
    N4460    N        0.74922    0.94306    0.54294    1.000
    N4461    N        0.72983    0.92006    0.59605    1.000
    Si4462   Si       0.71166    0.92280    0.55384    1.000
    N4463    N        0.70551    0.99041    0.58767    1.000
    Si4464   Si       0.74556    0.00631    0.59456    1.000
    N4465    N        0.71164    0.83078    0.70580    1.000
    N4466    N        0.70711    0.77483    0.67477    1.000
    Si4467   Si       0.74086    0.80313    0.69580    1.000
    Si4468   Si       0.70171    0.79460    0.63501    1.000
    N4469    N        0.74509    0.88102    0.73549    1.000
    Si4470   Si       0.71319    0.85284    0.74403    1.000
    N4471    N        0.70309    0.88998    0.66908    1.000
    Si4472   Si       0.70282    0.91080    0.62922    1.000
    Si4473   Si       0.73345    0.90398    0.69964    1.000
    N4474    N        0.70980    0.93584    0.71904    1.000
    N4475    N        0.73642    0.00801    0.64035    1.000
    N4476    N        0.73192    0.82790    0.77581    1.000
    Si4477   Si       0.72852    0.78749    0.76089    1.000
    N4478    N        0.73783    0.87797    0.82775    1.000
    Si4479   Si       0.72107    0.86766    0.86747    1.000
    N4480    N        0.71980    0.76849    0.86803    1.000
    Si4481   Si       0.70694    0.75799    0.82745    1.000
    N4482    N        0.73578    0.75855    0.79336    1.000
    N4483    N        0.75313    0.93412    0.85972    1.000
    Si4484   Si       0.70605    0.94972    0.75942    1.000
    N4485    N        0.73861    0.94330    0.78851    1.000
    Si4486   Si       0.72846    0.92129    0.82505    1.000
    N4487    N        0.70390    0.99276    0.76149    1.000
    Si4488   Si       0.72159    0.80857    0.88399    1.000
    N4489    N        0.71555    0.81051    0.92771    1.000
    N4490    N        0.74151    0.86880    0.95463    1.000
    N4491    N        0.75145    0.84363    0.88905    1.000
    Si4492   Si       0.73089    0.95872    0.96692    1.000
    N4493    N        0.71017    0.90065    0.89952    1.000
    N4494    N        0.70657    0.92309    0.96843    1.000
    N4495    N        0.74979    0.96044    0.92644    1.000
    N4496    N        0.70273    0.99289    0.96647    1.000
    Si4497   Si       0.70607    0.88746    0.94155    1.000
    Si4498   Si       0.74804    0.92648    0.90072    1.000
    N4499    N        0.79099    0.03226    0.06021    1.000
    N4500    N        0.79987    0.11410    0.08114    1.000
    N4501    N        0.80391    0.09194    0.01536    1.000
    Si4502   Si       0.75847    0.10834    0.09055    1.000
    Si4503   Si       0.77244    0.00730    0.99721    1.000
    N4504    N        0.79310    0.15796    0.02973    1.000
    N4505    N        0.78838    0.25115    0.02179    1.000
    Si4506   Si       0.75586    0.22887    0.00158    1.000
    N4507    N        0.79188    0.07263    0.18450    1.000
    Si4508   Si       0.77944    0.10837    0.16364    1.000
    Si4509   Si       0.77088    0.03653    0.19635    1.000
    N4510    N        0.75362    0.03426    0.23854    1.000
    Si4511   Si       0.78896    0.16315    0.22131    1.000
    N4512    N        0.76699    0.13998    0.19118    1.000
    N4513    N        0.80578    0.24572    0.19975    1.000
    N4514    N        0.78863    0.20127    0.14059    1.000
    Si4515   Si       0.78782    0.23316    0.23778    1.000
    N4516    N        0.76398    0.19862    0.23062    1.000
    Si4517   Si       0.77942    0.08673    0.34116    1.000
    N4518    N        0.79260    0.04704    0.33129    1.000
    N4519    N        0.76196    0.10925    0.30806    1.000
    Si4520   Si       0.79812    0.12957    0.29281    1.000
    Si4521   Si       0.75939    0.01970    0.33747    1.000
    Si4522   Si       0.77776    0.00423    0.26276    1.000
    N4523    N        0.78069    0.14797    0.25942    1.000
    N4524    N        0.76741    0.20647    0.29527    1.000
    Si4525   Si       0.80921    0.20552    0.29875    1.000
    N4526    N        0.80573    0.03016    0.40656    1.000
    Si4527   Si       0.80513    0.11617    0.45954    1.000
    Si4528   Si       0.76540    0.01411    0.40881    1.000
    N4529    N        0.77259    0.13243    0.43638    1.000
    N4530    N        0.75473    0.09806    0.37506    1.000
    N4531    N        0.78708    0.09341    0.49368    1.000
    Si4532   Si       0.75720    0.13547    0.39512    1.000
    N4533    N        0.76505    0.19858    0.44212    1.000
    Si4534   Si       0.77245    0.20366    0.39874    1.000
    N4535    N        0.77812    0.16785    0.37494    1.000
    Si4536   Si       0.76721    0.22848    0.47211    1.000
    N4537    N        0.80777    0.23026    0.39401    1.000
    N4538    N        0.79405    0.09984    0.57628    1.000
    N4539    N        0.76203    0.03217    0.50987    1.000
    Si4540   Si       0.76277    0.12045    0.51778    1.000
    Si4541   Si       0.80073    0.05430    0.50557    1.000
    Si4542   Si       0.76068    0.08268    0.59713    1.000
    N4543    N        0.78266    0.15199    0.54055    1.000
    N4544    N        0.78817    0.20778    0.50467    1.000
    Si4545   Si       0.75492    0.18273    0.52065    1.000
    N4546    N        0.78438    0.07379    0.63651    1.000
    N4547    N        0.76993    0.03929    0.69668    1.000
    Si4548   Si       0.80979    0.04866    0.70735    1.000
    Si4549   Si       0.75776    0.10406    0.65705    1.000
    N4550    N        0.81228    0.07461    0.74120    1.000
    N4551    N        0.79075    0.20273    0.65047    1.000
    N4552    N        0.77580    0.14330    0.66305    1.000
    N4553    N        0.77906    0.25002    0.69417    1.000
    Si4554   Si       0.79437    0.24507    0.65381    1.000
    Si4555   Si       0.78009    0.16776    0.62712    1.000
    N4556    N        0.80736    0.16815    0.72154    1.000
    Si4557   Si       0.77925    0.17983    0.68860    1.000
    N4558    N        0.79127    0.06429    0.80796    1.000
    Si4559   Si       0.77794    0.07930    0.76892    1.000
    N4560    N        0.77220    0.12272    0.76996    1.000
    Si4561   Si       0.78514    0.01998    0.80953    1.000
    Si4562   Si       0.80569    0.05924    0.85003    1.000
    N4563    N        0.76750    0.06307    0.86851    1.000
    N4564    N        0.80326    0.18095    0.79567    1.000
    N4565    N        0.77079    0.24030    0.79477    1.000
    Si4566   Si       0.80584    0.15143    0.76352    1.000
    Si4567   Si       0.76352    0.19884    0.80482    1.000
    N4568    N        0.80169    0.00617    0.92150    1.000
    N4569    N        0.76606    0.12068    0.95271    1.000
    Si4570   Si       0.79967    0.10567    0.97335    1.000
    Si4571   Si       0.80138    0.03641    0.95139    1.000
    N4572    N        0.75691    0.02687    0.95979    1.000
    N4573    N        0.79598    0.12941    0.88355    1.000
    N4574    N        0.81163    0.02396    0.99383    1.000
    Si4575   Si       0.76948    0.13629    0.91461    1.000
    N4576    N        0.78285    0.23758    0.91146    1.000
    N4577    N        0.77784    0.19746    0.97583    1.000
    Si4578   Si       0.75987    0.21100    0.93938    1.000
    N4579    N        0.75784    0.17805    0.90893    1.000
    Si4580   Si       0.81014    0.17643    0.99406    1.000
    Si4581   Si       0.78032    0.20448    0.88060    1.000
    Si4582   Si       0.78493    0.33339    0.03789    1.000
    N4583    N        0.78981    0.35558    0.11015    1.000
    N4584    N        0.80458    0.30553    0.06601    1.000
    Si4585   Si       0.78981    0.26266    0.06264    1.000
    N4586    N        0.80605    0.37178    0.03274    1.000
    Si4587   Si       0.80837    0.31583    0.10859    1.000
    N4588    N        0.78288    0.32052    0.99358    1.000
    N4589    N        0.77425    0.42759    0.05826    1.000
    N4590    N        0.77585    0.48383    0.02341    1.000
    Si4591   Si       0.75842    0.43291    0.09709    1.000
    Si4592   Si       0.75551    0.44397    0.02412    1.000
    Si4593   Si       0.81196    0.41108    0.04791    1.000
    Si4594   Si       0.79631    0.28260    0.17709    1.000
    Si4595   Si       0.76463    0.29878    0.23980    1.000
    N4596    N        0.79064    0.28358    0.13363    1.000
    N4597    N        0.75644    0.29163    0.19762    1.000
    N4598    N        0.81031    0.48277    0.23263    1.000
    Si4599   Si       0.77440    0.49399    0.21137    1.000
    N4600    N        0.76982    0.48237    0.16870    1.000
    Si4601   Si       0.78351    0.44061    0.16384    1.000
    N4602    N        0.79175    0.42717    0.12440    1.000
    N4603    N        0.76859    0.32076    0.31035    1.000
    Si4604   Si       0.80658    0.32736    0.29169    1.000
    N4605    N        0.76171    0.26078    0.25992    1.000
    N4606    N        0.81067    0.37044    0.28695    1.000
    N4607    N        0.80317    0.31483    0.25004    1.000
    Si4608   Si       0.75333    0.30162    0.34481    1.000
    Si4609   Si       0.77076    0.44594    0.35748    1.000
    N4610    N        0.78910    0.42317    0.32548    1.000
    Si4611   Si       0.78038    0.40220    0.28858    1.000
    N4612    N        0.77590    0.42632    0.25041    1.000
    N4613    N        0.78180    0.29666    0.37716    1.000
    N4614    N        0.77578    0.35659    0.40981    1.000
    Si4615   Si       0.80686    0.33181    0.39023    1.000
    Si4616   Si       0.77861    0.26284    0.40266    1.000
    N4617    N        0.78081    0.26210    0.44679    1.000
    N4618    N        0.79159    0.39182    0.47168    1.000
    N4619    N        0.79345    0.48391    0.37349    1.000
    N4620    N        0.77325    0.42583    0.39914    1.000
    Si4621   Si       0.79041    0.39317    0.42664    1.000
    Si4622   Si       0.78176    0.46667    0.41363    1.000
    N4623    N        0.78813    0.35097    0.53176    1.000
    Si4624   Si       0.77275    0.27443    0.58381    1.000
    Si4625   Si       0.76760    0.35477    0.56911    1.000
    Si4626   Si       0.78882    0.30814    0.52194    1.000
    N4627    N        0.80079    0.27323    0.54756    1.000
    N4628    N        0.78386    0.31830    0.58624    1.000
    Si4629   Si       0.81010    0.38142    0.51011    1.000
    N4630    N        0.78798    0.38224    0.59428    1.000
    N4631    N        0.79136    0.47230    0.50902    1.000
    N4632    N        0.77881    0.45661    0.57194    1.000
    Si4633   Si       0.79624    0.47891    0.60517    1.000
    Si4634   Si       0.80416    0.41950    0.58027    1.000
    Si4635   Si       0.75739    0.45533    0.53496    1.000
    Si4636   Si       0.79947    0.27354    0.72381    1.000
    Si4637   Si       0.77997    0.37332    0.63558    1.000
    N4638    N        0.77127    0.34595    0.70317    1.000
    N4639    N        0.76327    0.26499    0.62607    1.000
    Si4640   Si       0.77302    0.33757    0.74533    1.000
    N4641    N        0.81231    0.34632    0.64355    1.000
    N4642    N        0.80331    0.47411    0.66922    1.000
    N4643    N        0.78400    0.40509    0.66339    1.000
    Si4644   Si       0.75999    0.48786    0.66649    1.000
    N4645    N        0.76420    0.50113    0.62626    1.000
    Si4646   Si       0.79219    0.31261    0.84207    1.000
    N4647    N        0.77014    0.34503    0.81823    1.000
    N4648    N        0.80769    0.35674    0.76295    1.000
    Si4649   Si       0.79741    0.37481    0.80048    1.000
    N4650    N        0.76770    0.28647    0.86524    1.000
    N4651    N        0.77431    0.29441    0.74920    1.000
    Si4652   Si       0.75112    0.36637    0.85944    1.000
    N4653    N        0.79347    0.47870    0.76569    1.000
    Si4654   Si       0.78675    0.43681    0.75672    1.000
    N4655    N        0.77382    0.41445    0.79269    1.000
    N4656    N        0.75950    0.40860    0.85856    1.000
    Si4657   Si       0.75828    0.50090    0.78344    1.000
    Si4658   Si       0.78727    0.33784    0.92022    1.000
    N4659    N        0.78750    0.35037    0.87825    1.000
    N4660    N        0.76744    0.37430    0.93393    1.000
    N4661    N        0.76206    0.30483    0.93319    1.000
    Si4662   Si       0.75662    0.27323    0.90563    1.000
    N4663    N        0.80519    0.49154    0.96504    1.000
    N4664    N        0.75745    0.42259    0.98611    1.000
    Si4665   Si       0.78245    0.40898    0.95457    1.000
    Si4666   Si       0.77839    0.43990    0.88329    1.000
    N4667    N        0.78580    0.44401    0.92611    1.000
    N4668    N        0.79672    0.54494    0.04340    1.000
    Si4669   Si       0.79055    0.58794    0.04308    1.000
    Si4670   Si       0.75975    0.52438    0.03020    1.000
    N4671    N        0.80800    0.61321    0.00996    1.000
    N4672    N        0.81199    0.60280    0.07980    1.000
    Si4673   Si       0.75712    0.69041    0.04984    1.000
    Si4674   Si       0.80114    0.64111    0.09917    1.000
    N4675    N        0.77754    0.67467    0.01185    1.000
    N4676    N        0.78306    0.72742    0.05774    1.000
    Si4677   Si       0.81464    0.65618    0.02510    1.000
    Si4678   Si       0.77440    0.61889    0.16829    1.000
    Si4679   Si       0.78824    0.52542    0.15932    1.000
    N4680    N        0.78523    0.53571    0.20180    1.000
    Si4681   Si       0.76092    0.56648    0.21661    1.000
    N4682    N        0.78076    0.59700    0.24427    1.000
    N4683    N        0.76779    0.63319    0.12804    1.000
    Si4684   Si       0.79787    0.73145    0.16412    1.000
    N4685    N        0.76958    0.71166    0.13913    1.000
    N4686    N        0.77467    0.65076    0.19837    1.000
    N4687    N        0.79184    0.71925    0.20630    1.000
    Si4688   Si       0.77330    0.68534    0.22402    1.000
    Si4689   Si       0.80859    0.63045    0.22330    1.000
    N4690    N        0.76667    0.60526    0.36126    1.000
    Si4691   Si       0.80286    0.54627    0.31148    1.000
    N4692    N        0.76433    0.53816    0.32683    1.000
    Si4693   Si       0.80614    0.60996    0.34297    1.000
    Si4694   Si       0.75764    0.51144    0.35994    1.000
    N4695    N        0.76110    0.63815    0.30295    1.000
    Si4696   Si       0.78260    0.74155    0.31004    1.000
    Si4697   Si       0.79411    0.66533    0.29975    1.000
    N4698    N        0.77833    0.69864    0.32112    1.000
    N4699    N        0.77954    0.74033    0.26528    1.000
    N4700    N        0.79933    0.66460    0.25488    1.000
    N4701    N        0.78277    0.57479    0.42408    1.000
    Si4702   Si       0.79759    0.60075    0.45543    1.000
    N4703    N        0.79073    0.52081    0.46120    1.000
    N4704    N        0.77564    0.59671    0.49396    1.000
    Si4705   Si       0.75925    0.53267    0.43209    1.000
    N4706    N        0.77438    0.69507    0.38487    1.000
    Si4707   Si       0.75968    0.66044    0.46810    1.000
    Si4708   Si       0.77709    0.71558    0.42276    1.000
    N4709    N        0.77276    0.75626    0.42926    1.000
    N4710    N        0.78957    0.64300    0.44356    1.000
    N4711    N        0.77501    0.55602    0.58734    1.000
    Si4712   Si       0.77064    0.59900    0.59437    1.000
    Si4713   Si       0.78455    0.62587    0.52477    1.000
    Si4714   Si       0.78637    0.51640    0.50459    1.000
    N4715    N        0.76017    0.62145    0.55956    1.000
    N4716    N        0.80641    0.61842    0.60797    1.000
    Si4717   Si       0.77397    0.70374    0.52678    1.000
    Si4718   Si       0.79674    0.70021    0.59599    1.000
    N4719    N        0.77608    0.66462    0.50615    1.000
    N4720    N        0.76204    0.70026    0.56937    1.000
    N4721    N        0.81073    0.72470    0.52369    1.000
    Si4722   Si       0.77545    0.54833    0.70395    1.000
    N4723    N        0.79989    0.62322    0.67435    1.000
    Si4724   Si       0.76121    0.60061    0.66928    1.000
    N4725    N        0.77409    0.55888    0.66051    1.000
    N4726    N        0.75796    0.58745    0.71371    1.000
    Si4727   Si       0.77173    0.71935    0.65720    1.000
    N4728    N        0.76390    0.66216    0.72800    1.000
    N4729    N        0.79009    0.68676    0.63642    1.000
    Si4730   Si       0.79999    0.67618    0.74484    1.000
    N4731    N        0.77082    0.72165    0.69904    1.000
    Si4732   Si       0.78959    0.74990    0.72880    1.000
    N4733    N        0.78867    0.75944    0.64929    1.000
    N4734    N        0.76181    0.60444    0.78288    1.000
    N4735    N        0.77351    0.58180    0.85281    1.000
    Si4736   Si       0.79871    0.62020    0.79864    1.000
    Si4737   Si       0.75858    0.54257    0.83915    1.000
    N4738    N        0.80200    0.52856    0.84288    1.000
    Si4739   Si       0.75831    0.62172    0.85958    1.000
    N4740    N        0.77862    0.53776    0.74886    1.000
    N4741    N        0.78869    0.64213    0.83766    1.000
    Si4742   Si       0.79340    0.68504    0.84673    1.000
    N4743    N        0.78271    0.71694    0.75785    1.000
    N4744    N        0.75619    0.69970    0.82846    1.000
    N4745    N        0.81343    0.65866    0.78116    1.000
    N4746    N        0.81277    0.56261    0.95341    1.000
    Si4747   Si       0.78361    0.52866    0.95889    1.000
    Si4748   Si       0.80204    0.60282    0.96944    1.000
    N4749    N        0.75797    0.60400    0.96200    1.000
    N4750    N        0.75648    0.54218    0.98992    1.000
    N4751    N        0.76736    0.62677    0.90072    1.000
    N4752    N        0.75339    0.51230    0.92993    1.000
    N4753    N        0.77118    0.73882    0.97749    1.000
    Si4754   Si       0.79425    0.65570    0.91970    1.000
    N4755    N        0.80683    0.68085    0.88714    1.000
    N4756    N        0.76493    0.67687    0.94523    1.000
    Si4757   Si       0.75436    0.69773    0.98178    1.000
    N4758    N        0.79333    0.85639    0.06634    1.000
    N4759    N        0.76819    0.84066    0.00887    1.000
    Si4760   Si       0.77385    0.76961    0.06076    1.000
    Si4761   Si       0.80389    0.83365    0.03189    1.000
    N4762    N        0.80666    0.79104    0.03959    1.000
    N4763    N        0.75652    0.78180    0.10110    1.000
    Si4764   Si       0.75768    0.87931    0.06114    1.000
    Si4765   Si       0.78528    0.94263    0.02689    1.000
    N4766    N        0.78257    0.96318    0.06413    1.000
    N4767    N        0.76421    0.90247    0.02442    1.000
    Si4768   Si       0.81023    0.99538    0.07680    1.000
    N4769    N        0.76311    0.96530    0.99609    1.000
    Si4770   Si       0.79417    0.78970    0.12304    1.000
    Si4771   Si       0.77900    0.79029    0.20122    1.000
    N4772    N        0.77437    0.83314    0.19823    1.000
    N4773    N        0.79033    0.77515    0.16401    1.000
    Si4774   Si       0.77414    0.86034    0.23275    1.000
    Si4775   Si       0.79328    0.84804    0.16314    1.000
    N4776    N        0.80259    0.83038    0.12559    1.000
    N4777    N        0.77588    0.90266    0.22134    1.000
    Si4778   Si       0.81462    0.96985    0.20867    1.000
    N4779    N        0.81005    0.94583    0.17306    1.000
    N4780    N        0.78420    0.96791    0.24097    1.000
    Si4781   Si       0.79750    0.97848    0.14800    1.000
    N4782    N        0.77258    0.88638    0.15888    1.000
    N4783    N        0.79786    0.00365    0.18527    1.000
    N4784    N        0.75908    0.97035    0.13058    1.000
    Si4785   Si       0.80215    0.90430    0.18614    1.000
    N4786    N        0.78307    0.84299    0.31426    1.000
    Si4787   Si       0.79339    0.83097    0.35525    1.000
    N4788    N        0.76640    0.80072    0.36805    1.000
    N4789    N        0.81024    0.84951    0.25403    1.000
    N4790    N        0.78359    0.93814    0.33273    1.000
    Si4791   Si       0.75865    0.95100    0.36790    1.000
    N4792    N        0.76027    0.99411    0.30175    1.000
    N4793    N        0.76406    0.99276    0.37270    1.000
    Si4794   Si       0.81101    0.88119    0.48120    1.000
    N4795    N        0.78926    0.86365    0.38277    1.000
    Si4796   Si       0.76803    0.79565    0.41089    1.000
    Si4797   Si       0.80125    0.77650    0.45868    1.000
    N4798    N        0.80875    0.80428    0.42728    1.000
    N4799    N        0.78278    0.87642    0.44807    1.000
    N4800    N        0.77624    0.78689    0.49409    1.000
    N4801    N        0.76440    0.92909    0.40370    1.000
    Si4802   Si       0.79261    0.89526    0.41083    1.000
    Si4803   Si       0.77393    0.00380    0.47778    1.000
    N4804    N        0.79597    0.96895    0.49342    1.000
    N4805    N        0.77463    0.82800    0.55523    1.000
    Si4806   Si       0.77894    0.82920    0.51100    1.000
    Si4807   Si       0.81311    0.81753    0.57431    1.000
    N4808    N        0.79267    0.89922    0.51421    1.000
    N4809    N        0.77758    0.97828    0.59542    1.000
    N4810    N        0.79509    0.90547    0.58603    1.000
    Si4811   Si       0.77025    0.93483    0.50528    1.000
    Si4812   Si       0.76708    0.93696    0.58297    1.000
    Si4813   Si       0.81351    0.97757    0.61601    1.000
    Si4814   Si       0.79479    0.86394    0.67777    1.000
    N4815    N        0.76857    0.82706    0.67298    1.000
    Si4816   Si       0.77909    0.80085    0.63947    1.000
    N4817    N        0.75732    0.78017    0.72951    1.000
    Si4818   Si       0.78726    0.88425    0.74432    1.000
    N4819    N        0.77108    0.96879    0.68561    1.000
    N4820    N        0.77232    0.90318    0.67991    1.000
    Si4821   Si       0.79809    0.93675    0.67727    1.000
    N4822    N        0.81042    0.00785    0.65109    1.000
    N4823    N        0.81207    0.93823    0.63563    1.000
    Si4824   Si       0.76938    0.00857    0.66798    1.000
    N4825    N        0.79277    0.86846    0.78448    1.000
    N4826    N        0.78189    0.82234    0.83059    1.000
    Si4827   Si       0.75971    0.84763    0.80356    1.000
    Si4828   Si       0.78783    0.84889    0.86596    1.000
    N4829    N        0.80841    0.88428    0.84920    1.000
    Si4830   Si       0.78173    0.95257    0.78334    1.000
    N4831    N        0.79221    0.99420    0.77627    1.000
    Si4832   Si       0.79739    0.92848    0.85761    1.000
    N4833    N        0.80579    0.94407    0.81820    1.000
    N4834    N        0.79834    0.92579    0.75044    1.000
    Si4835   Si       0.76662    0.87770    0.98745    1.000
    N4836    N        0.78236    0.80369    0.94697    1.000
    Si4837   Si       0.79993    0.76635    0.95748    1.000
    Si4838   Si       0.75307    0.83289    0.93495    1.000
    N4839    N        0.80700    0.88420    0.97171    1.000
    Si4840   Si       0.75601    0.00237    0.92191    1.000
    N4841    N        0.78387    0.90399    0.90959    1.000
    N4842    N        0.85625    0.05656    0.04618    1.000
    N4843    N        0.86536    0.10346    0.10414    1.000
    Si4844   Si       0.83055    0.12991    0.10966    1.000
    Si4845   Si       0.81624    0.12444    0.04259    1.000
    Si4846   Si       0.81539    0.05160    0.03023    1.000
    N4847    N        0.86138    0.13018    0.04026    1.000
    N4848    N        0.83967    0.16944    0.09548    1.000
    Si4849   Si       0.86071    0.24389    0.06850    1.000
    Si4850   Si       0.82765    0.24711    0.00587    1.000
    Si4851   Si       0.82187    0.20613    0.11208    1.000
    N4852    N        0.81895    0.23634    0.08086    1.000
    N4853    N        0.84013    0.20698    0.99629    1.000
    N4854    N        0.85384    0.04250    0.20967    1.000
    Si4855   Si       0.83652    0.07514    0.18715    1.000
    N4856    N        0.84066    0.11125    0.20959    1.000
    N4857    N        0.81556    0.12614    0.14870    1.000
    Si4858   Si       0.85152    0.01744    0.24403    1.000
    Si4859   Si       0.81666    0.21142    0.17353    1.000
    Si4860   Si       0.84059    0.14400    0.17978    1.000
    Si4861   Si       0.85135    0.19250    0.23386    1.000
    N4862    N        0.84834    0.21999    0.14429    1.000
    N4863    N        0.82320    0.17918    0.20096    1.000
    N4864    N        0.83041    0.10170    0.28349    1.000
    Si4865   Si       0.84773    0.09166    0.32418    1.000
    N4866    N        0.86031    0.05120    0.32321    1.000
    Si4867   Si       0.82417    0.02792    0.31193    1.000
    N4868    N        0.81757    0.02235    0.27017    1.000
    N4869    N        0.81528    0.11171    0.34788    1.000
    Si4870   Si       0.85281    0.11238    0.24886    1.000
    N4871    N        0.83497    0.22724    0.32742    1.000
    N4872    N        0.82537    0.21750    0.25823    1.000
    Si4873   Si       0.86207    0.15773    0.30185    1.000
    N4874    N        0.81835    0.16545    0.31175    1.000
    N4875    N        0.86317    0.15629    0.25756    1.000
    Si4876   Si       0.84260    0.21831    0.37125    1.000
    Si4877   Si       0.81622    0.15570    0.35575    1.000
    N4878    N        0.83426    0.08942    0.44208    1.000
    Si4879   Si       0.83016    0.04596    0.43730    1.000
    N4880    N        0.81447    0.02587    0.47457    1.000
    N4881    N        0.84778    0.17578    0.37543    1.000
    N4882    N        0.85600    0.19772    0.48524    1.000
    N4883    N        0.82493    0.14515    0.48305    1.000
    N4884    N        0.83251    0.05812    0.53555    1.000
    Si4885   Si       0.83028    0.07684    0.57448    1.000
    N4886    N        0.84503    0.04873    0.60270    1.000
    N4887    N        0.85232    0.11398    0.57066    1.000
    Si4888   Si       0.87364    0.01747    0.59403    1.000
    N4889    N        0.84252    0.17412    0.54669    1.000
    Si4890   Si       0.81963    0.18004    0.51096    1.000
    N4891    N        0.86080    0.23503    0.57718    1.000
    Si4892   Si       0.81731    0.13989    0.56682    1.000
    N4893    N        0.81541    0.16183    0.60426    1.000
    Si4894   Si       0.86781    0.09849    0.67223    1.000
    N4895    N        0.83795    0.06698    0.67697    1.000
    N4896    N        0.85862    0.12475    0.70461    1.000
    Si4897   Si       0.85098    0.09548    0.73668    1.000
    N4898    N        0.85942    0.12127    0.63700    1.000
    Si4899   Si       0.82068    0.05124    0.63996    1.000
    N4900    N        0.83348    0.01366    0.71998    1.000
    N4901    N        0.83634    0.25610    0.64560    1.000
    Si4902   Si       0.86629    0.23652    0.74401    1.000
    Si4903   Si       0.85115    0.16375    0.63000    1.000
    Si4904   Si       0.85111    0.16684    0.70892    1.000
    N4905    N        0.85917    0.18468    0.66836    1.000
    N4906    N        0.85877    0.02574    0.78719    1.000
    N4907    N        0.84019    0.08275    0.86467    1.000
    N4908    N        0.84317    0.12610    0.76811    1.000
    Si4909   Si       0.83564    0.12725    0.86570    1.000
    N4910    N        0.81731    0.01770    0.83847    1.000
    Si4911   Si       0.81478    0.24771    0.79290    1.000
    N4912    N        0.85184    0.14770    0.83161    1.000
    Si4913   Si       0.83531    0.18841    0.82559    1.000
    N4914    N        0.85047    0.22659    0.81025    1.000
    N4915    N        0.82494    0.24957    0.75067    1.000
    N4916    N        0.82195    0.19513    0.86741    1.000
    N4917    N        0.82027    0.07482    0.94961    1.000
    Si4918   Si       0.86379    0.07410    0.95088    1.000
    Si4919   Si       0.82350    0.24281    0.92971    1.000
    Si4920   Si       0.86878    0.13515    0.99366    1.000
    Si4921   Si       0.86882    0.20046    0.96414    1.000
    N4922    N        0.84225    0.20197    0.92985    1.000
    N4923    N        0.82744    0.13892    0.97966    1.000
    Si4924   Si       0.85640    0.18737    0.89271    1.000
    N4925    N        0.86221    0.14436    0.89652    1.000
    N4926    N        0.85624    0.26831    0.03215    1.000
    Si4927   Si       0.83751    0.37175    0.00259    1.000
    N4928    N        0.85085    0.31937    0.11878    1.000
    N4929    N        0.85084    0.32820    0.99784    1.000
    Si4930   Si       0.81608    0.48126    0.00667    1.000
    N4931    N        0.82542    0.44079    0.01966    1.000
    N4932    N        0.83856    0.40231    0.08155    1.000
    Si4933   Si       0.81369    0.39066    0.11588    1.000
    N4934    N        0.87316    0.38963    0.02105    1.000
    N4935    N        0.83711    0.37881    0.15003    1.000
    N4936    N        0.86390    0.28616    0.23567    1.000
    Si4937   Si       0.85223    0.33864    0.15845    1.000
    N4938    N        0.85660    0.35570    0.23536    1.000
    N4939    N        0.82572    0.31578    0.18410    1.000
    Si4940   Si       0.83675    0.32017    0.22465    1.000
    Si4941   Si       0.81251    0.44051    0.23404    1.000
    N4942    N        0.81419    0.43436    0.19175    1.000
    Si4943   Si       0.84734    0.41759    0.16903    1.000
    N4944    N        0.86309    0.44600    0.13854    1.000
    N4945    N        0.84562    0.31278    0.30113    1.000
    Si4946   Si       0.86288    0.34101    0.32766    1.000
    N4947    N        0.83719    0.35117    0.36340    1.000
    Si4948   Si       0.84982    0.38133    0.26995    1.000
    N4949    N        0.84718    0.42558    0.25730    1.000
    N4950    N        0.86571    0.49024    0.27521    1.000
    Si4951   Si       0.86268    0.37320    0.39293    1.000
    N4952    N        0.83178    0.31266    0.42102    1.000
    N4953    N        0.85627    0.26489    0.44990    1.000
    N4954    N        0.81632    0.30551    0.48834    1.000
    Si4955   Si       0.81705    0.28515    0.45163    1.000
    Si4956   Si       0.87397    0.30212    0.43215    1.000
    Si4957   Si       0.83356    0.50282    0.36878    1.000
    N4958    N        0.85081    0.43060    0.48409    1.000
    Si4959   Si       0.84982    0.43538    0.44124    1.000
    N4960    N        0.83508    0.39567    0.41993    1.000
    N4961    N        0.82037    0.46538    0.43486    1.000
    Si4962   Si       0.82750    0.50765    0.44369    1.000
    Si4963   Si       0.84179    0.26943    0.55823    1.000
    N4964    N        0.84279    0.29469    0.59457    1.000
    N4965    N        0.85002    0.36487    0.50619    1.000
    N4966    N        0.85706    0.35749    0.58379    1.000
    Si4967   Si       0.82289    0.33277    0.60455    1.000
    Si4968   Si       0.85566    0.32320    0.50157    1.000
    N4969    N        0.86510    0.29971    0.53616    1.000
    Si4970   Si       0.86831    0.26050    0.61189    1.000
    Si4971   Si       0.82793    0.45076    0.51566    1.000
    N4972    N        0.86224    0.47480    0.53155    1.000
    Si4973   Si       0.86850    0.50057    0.61047    1.000
    N4974    N        0.81853    0.44142    0.61441    1.000
    N4975    N        0.81857    0.41518    0.54097    1.000
    N4976    N        0.82763    0.50780    0.59747    1.000
    N4977    N        0.82300    0.30020    0.69900    1.000
    N4978    N        0.84928    0.35938    0.70593    1.000
    Si4979   Si       0.85556    0.28197    0.67729    1.000
    Si4980   Si       0.81264    0.33995    0.68865    1.000
    Si4981   Si       0.83900    0.38038    0.74228    1.000
    Si4982   Si       0.81621    0.43458    0.65788    1.000
    N4983    N        0.87033    0.49734    0.65405    1.000
    N4984    N        0.81695    0.41588    0.73731    1.000
    Si4985   Si       0.83525    0.49868    0.68362    1.000
    N4986    N        0.85602    0.42571    0.67146    1.000
    N4987    N        0.84498    0.48425    0.72475    1.000
    Si4988   Si       0.85428    0.30232    0.82524    1.000
    N4989    N        0.83740    0.31904    0.86131    1.000
    N4990    N        0.83289    0.37774    0.82689    1.000
    Si4991   Si       0.82752    0.36340    0.86905    1.000
    Si4992   Si       0.87010    0.36837    0.80569    1.000
    N4993    N        0.81560    0.28684    0.81269    1.000
    N4994    N        0.86948    0.32576    0.79266    1.000
    Si4995   Si       0.82837    0.49802    0.86000    1.000
    N4996    N        0.86458    0.49649    0.83503    1.000
    N4997    N        0.81712    0.45618    0.86940    1.000
    N4998    N        0.87368    0.38685    0.76563    1.000
    Si4999   Si       0.82201    0.30923    0.97271    1.000
    N5000    N        0.82167    0.26571    0.96652    1.000
    N5001    N        0.82737    0.32519    0.93345    1.000
    Si5002   Si       0.85296    0.30893    0.90185    1.000
    N5003    N        0.85263    0.26537    0.90446    1.000
    Si5004   Si       0.81986    0.47111    0.92749    1.000
    N5005    N        0.85689    0.44421    0.92509    1.000
    N5006    N        0.84778    0.39024    0.89470    1.000
    Si5007   Si       0.85223    0.43026    0.87949    1.000
    N5008    N        0.82369    0.39189    0.96625    1.000
    Si5009   Si       0.85732    0.40021    0.93843    1.000
    Si5010   Si       0.85541    0.59673    0.08408    1.000
    Si5011   Si       0.83933    0.53599    0.05088    1.000
    N5012    N        0.83866    0.51218    0.08623    1.000
    N5013    N        0.86494    0.57020    0.04967    1.000
    Si5014   Si       0.85715    0.52784    0.12169    1.000
    N5015    N        0.84664    0.51214    0.01471    1.000
    N5016    N        0.84976    0.73332    0.04015    1.000
    Si5017   Si       0.82240    0.71722    0.07344    1.000
    N5018    N        0.85699    0.70765    0.10040    1.000
    Si5019   Si       0.86462    0.66528    0.10837    1.000
    Si5020   Si       0.87050    0.70636    0.01568    1.000
    N5021    N        0.81334    0.67082    0.06781    1.000
    N5022    N        0.84530    0.67210    0.00126    1.000
    N5023    N        0.81730    0.75606    0.10665    1.000
    N5024    N        0.82915    0.53509    0.15278    1.000
    Si5025   Si       0.84098    0.56586    0.18650    1.000
    N5026    N        0.85614    0.54298    0.22028    1.000
    Si5027   Si       0.84636    0.62790    0.16689    1.000
    Si5028   Si       0.83674    0.51270    0.24660    1.000
    N5029    N        0.81254    0.60288    0.18207    1.000
    Si5030   Si       0.81370    0.74166    0.23749    1.000
    Si5031   Si       0.85823    0.69927    0.19547    1.000
    N5032    N        0.83110    0.64545    0.13001    1.000
    N5033    N        0.84085    0.72390    0.16422    1.000
    N5034    N        0.85194    0.65638    0.19894    1.000
    N5035    N        0.85099    0.71765    0.23696    1.000
    Si5036   Si       0.85490    0.74155    0.12625    1.000
    N5037    N        0.83530    0.52435    0.33097    1.000
    Si5038   Si       0.81686    0.58210    0.26398    1.000
    N5039    N        0.81248    0.53961    0.26838    1.000
    N5040    N        0.81125    0.58810    0.30703    1.000
    N5041    N        0.84338    0.61026    0.24366    1.000
    N5042    N        0.82274    0.65259    0.33493    1.000
    Si5043   Si       0.85270    0.72831    0.32815    1.000
    N5044    N        0.82140    0.75636    0.32046    1.000
    Si5045   Si       0.86854    0.65848    0.33118    1.000
    N5046    N        0.86581    0.69594    0.30358    1.000
    Si5047   Si       0.81376    0.67797    0.37032    1.000
    N5048    N        0.84073    0.71404    0.36546    1.000
    N5049    N        0.83161    0.59029    0.37221    1.000
    N5050    N        0.85946    0.51507    0.47072    1.000
    N5051    N        0.83479    0.52775    0.40580    1.000
    Si5052   Si       0.82540    0.57040    0.40867    1.000
    N5053    N        0.83903    0.58920    0.44474    1.000
    Si5054   Si       0.85300    0.72105    0.40927    1.000
    N5055    N        0.81894    0.70912    0.43742    1.000
    N5056    N        0.85496    0.65060    0.47031    1.000
    Si5057   Si       0.82697    0.66660    0.44330    1.000
    N5058    N        0.84125    0.66308    0.40189    1.000
    N5059    N        0.84382    0.57291    0.57351    1.000
    Si5060   Si       0.83573    0.61683    0.57394    1.000
    N5061    N        0.82772    0.62619    0.53204    1.000
    Si5062   Si       0.85902    0.51529    0.51435    1.000
    N5063    N        0.81931    0.53048    0.52909    1.000
    Si5064   Si       0.81377    0.54265    0.57154    1.000
    N5065    N        0.81389    0.73923    0.58963    1.000
    N5066    N        0.82670    0.67644    0.57723    1.000
    Si5067   Si       0.86211    0.64365    0.51280    1.000
    Si5068   Si       0.83207    0.74778    0.55153    1.000
    Si5069   Si       0.86947    0.67223    0.57678    1.000
    Si5070   Si       0.82818    0.62200    0.70702    1.000
    N5071    N        0.82413    0.59759    0.74295    1.000
    N5072    N        0.81789    0.53306    0.70138    1.000
    N5073    N        0.86696    0.61204    0.69006    1.000
    N5074    N        0.86459    0.74555    0.63555    1.000
    N5075    N        0.85657    0.65730    0.64144    1.000
    N5076    N        0.83218    0.66374    0.71927    1.000
    Si5077   Si       0.86922    0.68683    0.72739    1.000
    N5078    N        0.87369    0.70594    0.68894    1.000
    Si5079   Si       0.81276    0.64874    0.64072    1.000
    Si5080   Si       0.84806    0.57716    0.77116    1.000
    N5081    N        0.84788    0.53236    0.77288    1.000
    N5082    N        0.82838    0.58918    0.80968    1.000
    Si5083   Si       0.81759    0.56920    0.84758    1.000
    Si5084   Si       0.81848    0.51451    0.74566    1.000
    Si5085   Si       0.85245    0.74137    0.84004    1.000
    Si5086   Si       0.84184    0.68739    0.79365    1.000
    N5087    N        0.85536    0.71198    0.76000    1.000
    N5088    N        0.82493    0.70731    0.82793    1.000
    Si5089   Si       0.85402    0.75514    0.76522    1.000
    N5090    N        0.86908    0.71799    0.87270    1.000
    N5091    N        0.84272    0.57343    0.88425    1.000
    Si5092   Si       0.84049    0.54739    0.92171    1.000
    N5093    N        0.82782    0.50699    0.90470    1.000
    N5094    N        0.82369    0.63601    0.94446    1.000
    Si5095   Si       0.85242    0.68358    0.89246    1.000
    N5096    N        0.85571    0.69641    0.93462    1.000
    Si5097   Si       0.85484    0.66061    0.96118    1.000
    N5098    N        0.86619    0.64533    0.87555    1.000
    Si5099   Si       0.85923    0.74101    0.94883    1.000
    N5100    N        0.82478    0.75679    0.92240    1.000
    N5101    N        0.84135    0.85164    0.01975    1.000
    N5102    N        0.85898    0.83186    0.08784    1.000
    Si5103   Si       0.84231    0.77188    0.02346    1.000
    Si5104   Si       0.82286    0.85716    0.09819    1.000
    Si5105   Si       0.87237    0.83549    0.04560    1.000
    N5106    N        0.84113    0.89645    0.10052    1.000
    N5107    N        0.82896    0.92939    0.02353    1.000
    N5108    N        0.84729    0.98894    0.05444    1.000
    Si5109   Si       0.86374    0.95290    0.03697    1.000
    N5110    N        0.82641    0.99479    0.11949    1.000
    Si5111   Si       0.83911    0.89102    0.99926    1.000
    N5112    N        0.81296    0.78422    0.22624    1.000
    Si5113   Si       0.86133    0.87373    0.20451    1.000
    N5114    N        0.83029    0.86951    0.17470    1.000
    Si5115   Si       0.83634    0.81711    0.24225    1.000
    N5116    N        0.87128    0.83307    0.22279    1.000
    N5117    N        0.84253    0.90926    0.22176    1.000
    N5118    N        0.84970    0.97571    0.23243    1.000
    Si5119   Si       0.87173    0.99200    0.12237    1.000
    Si5120   Si       0.86003    0.93685    0.25066    1.000
    N5121    N        0.84408    0.81038    0.28511    1.000
    Si5122   Si       0.84938    0.79107    0.32330    1.000
    N5123    N        0.84821    0.86715    0.32417    1.000
    N5124    N        0.83426    0.81194    0.35666    1.000
    Si5125   Si       0.82194    0.84825    0.29435    1.000
    Si5126   Si       0.87006    0.84532    0.35683    1.000
    N5127    N        0.84450    0.92595    0.28925    1.000
    N5128    N        0.83589    0.98827    0.32458    1.000
    Si5129   Si       0.82532    0.94643    0.32267    1.000
    N5130    N        0.86337    0.93616    0.34765    1.000
    Si5131   Si       0.87202    0.90315    0.31770    1.000
    Si5132   Si       0.84038    0.80035    0.39913    1.000
    N5133    N        0.84146    0.77654    0.47814    1.000
    N5134    N        0.86113    0.76308    0.40794    1.000
    Si5135   Si       0.87014    0.91320    0.38423    1.000
    N5136    N        0.84834    0.97619    0.44574    1.000
    Si5137   Si       0.85263    0.93365    0.44009    1.000
    N5138    N        0.84779    0.90557    0.47340    1.000
    Si5139   Si       0.83560    0.98857    0.48461    1.000
    N5140    N        0.83309    0.91267    0.40762    1.000
    N5141    N        0.83525    0.85466    0.57409    1.000
    N5142    N        0.82844    0.79094    0.54586    1.000
    Si5143   Si       0.84211    0.80865    0.50663    1.000
    N5144    N        0.81918    0.84324    0.49843    1.000
    Si5145   Si       0.87208    0.87739    0.57152    1.000
    N5146    N        0.81598    0.80278    0.61452    1.000
    N5147    N        0.85423    0.90581    0.54253    1.000
    N5148    N        0.85445    0.98025    0.59936    1.000
    N5149    N        0.86656    0.96448    0.50579    1.000
    N5150    N        0.86791    0.90458    0.60642    1.000
    Si5151   Si       0.82537    0.90123    0.61891    1.000
    Si5152   Si       0.87069    0.92094    0.50662    1.000
    Si5153   Si       0.81447    0.89009    0.55039    1.000
    Si5154   Si       0.82545    0.76041    0.62571    1.000
    Si5155   Si       0.85974    0.79608    0.70987    1.000
    Si5156   Si       0.84515    0.82933    0.63617    1.000
    N5157    N        0.84090    0.80893    0.67385    1.000
    N5158    N        0.83054    0.76930    0.73083    1.000
    Si5159   Si       0.86054    0.86958    0.70904    1.000
    N5160    N        0.82145    0.86768    0.64368    1.000
    N5161    N        0.81792    0.86995    0.71303    1.000
    Si5162   Si       0.84091    0.93256    0.73859    1.000
    N5163    N        0.83595    0.94871    0.69764    1.000
    Si5164   Si       0.83969    0.99196    0.68453    1.000
    N5165    N        0.87232    0.90455    0.73826    1.000
    N5166    N        0.84632    0.83527    0.81485    1.000
    N5167    N        0.83720    0.77776    0.85937    1.000
    Si5168   Si       0.82722    0.87189    0.81151    1.000
    Si5169   Si       0.82057    0.80103    0.82476    1.000
    N5170    N        0.83132    0.76808    0.79753    1.000
    N5171    N        0.85619    0.90178    0.80057    1.000
    N5172    N        0.85060    0.96174    0.76722    1.000
    Si5173   Si       0.84698    0.94431    0.80614    1.000
    Si5174   Si       0.83319    0.00147    0.76137    1.000
    Si5175   Si       0.85855    0.01015    0.82962    1.000
    Si5176   Si       0.83555    0.79293    0.89932    1.000
    Si5177   Si       0.85855    0.84982    0.89256    1.000
    N5178    N        0.81819    0.83313    0.89085    1.000
    N5179    N        0.83831    0.76355    0.98123    1.000
    N5180    N        0.85834    0.88153    0.92245    1.000
    N5181    N        0.82326    0.95031    0.88454    1.000
    Si5182   Si       0.82004    0.90189    0.93362    1.000
    Si5183   Si       0.82820    0.97241    0.91928    1.000
    Si5184   Si       0.87308    0.94643    0.96295    1.000
    N5185    N        0.83001    0.94040    0.95044    1.000
    N5186    N        0.86535    0.98836    0.93645    1.000
    N5187    N        0.91369    0.08361    0.05717    1.000
    N5188    N        0.91509    0.01592    0.03124    1.000
    Si5189   Si       0.87951    0.02046    0.05505    1.000
    N5190    N        0.89687    0.01052    0.09299    1.000
    Si5191   Si       0.87210    0.09169    0.06126    1.000
    Si5192   Si       0.87466    0.16374    0.06780    1.000
    Si5193   Si       0.92343    0.22739    0.05215    1.000
    N5194    N        0.91291    0.15261    0.08415    1.000
    N5195    N        0.88404    0.20796    0.06112    1.000
    Si5196   Si       0.88948    0.10900    0.13882    1.000
    Si5197   Si       0.89039    0.04104    0.18453    1.000
    N5198    N        0.92310    0.05259    0.21096    1.000
    N5199    N        0.87489    0.07659    0.16248    1.000
    N5200    N        0.87713    0.21480    0.20698    1.000
    Si5201   Si       0.89768    0.18295    0.17989    1.000
    Si5202   Si       0.88745    0.24015    0.13916    1.000
    N5203    N        0.91881    0.16682    0.21190    1.000
    N5204    N        0.91733    0.20619    0.14704    1.000
    N5205    N        0.87924    0.14786    0.15889    1.000
    Si5206   Si       0.90506    0.14348    0.24653    1.000
    Si5207   Si       0.89301    0.03181    0.30430    1.000
    Si5208   Si       0.90184    0.12364    0.36129    1.000
    N5209    N        0.88878    0.02685    0.26336    1.000
    N5210    N        0.87905    0.12234    0.32170    1.000
    Si5211   Si       0.91611    0.10797    0.30123    1.000
    N5212    N        0.92253    0.06433    0.30340    1.000
    N5213    N        0.89441    0.10104    0.25625    1.000
    Si5214   Si       0.91940    0.06221    0.25333    1.000
    N5215    N        0.92891    0.04660    0.37439    1.000
    N5216    N        0.88832    0.19146    0.30853    1.000
    N5217    N        0.88337    0.23480    0.36449    1.000
    N5218    N        0.89376    0.25592    0.29130    1.000
    Si5219   Si       0.87705    0.22919    0.32115    1.000
    Si5220   Si       0.93053    0.24863    0.27068    1.000
    Si5221   Si       0.93051    0.18460    0.29837    1.000
    N5222    N        0.88118    0.09289    0.38437    1.000
    Si5223   Si       0.88695    0.04833    0.38436    1.000
    Si5224   Si       0.90677    0.04072    0.45844    1.000
    N5225    N        0.90441    0.08656    0.45536    1.000
    Si5226   Si       0.92126    0.10427    0.49013    1.000
    N5227    N        0.88166    0.03061    0.49208    1.000
    N5228    N        0.87176    0.04034    0.42721    1.000
    Si5229   Si       0.87397    0.09989    0.42707    1.000
    Si5230   Si       0.86638    0.15755    0.47374    1.000
    N5231    N        0.87327    0.14364    0.43253    1.000
    Si5232   Si       0.87543    0.22985    0.46415    1.000
    N5233    N        0.88867    0.21314    0.42508    1.000
    Si5234   Si       0.88246    0.17489    0.40431    1.000
    N5235    N        0.90868    0.24454    0.48597    1.000
    Si5236   Si       0.90846    0.24070    0.39974    1.000
    N5237    N        0.91399    0.16092    0.37856    1.000
    N5238    N        0.90443    0.14568    0.49285    1.000
    N5239    N        0.90527    0.08602    0.52643    1.000
    N5240    N        0.91549    0.09150    0.60171    1.000
    N5241    N        0.88567    0.02250    0.55186    1.000
    Si5242   Si       0.88330    0.12124    0.59898    1.000
    N5243    N        0.91228    0.01165    0.61265    1.000
    Si5244   Si       0.87519    0.05602    0.52572    1.000
    Si5245   Si       0.93177    0.08765    0.56160    1.000
    Si5246   Si       0.92856    0.15816    0.52703    1.000
    N5247    N        0.91328    0.19320    0.54687    1.000
    N5248    N        0.88321    0.16669    0.59992    1.000
    Si5249   Si       0.87433    0.19485    0.56627    1.000
    N5250    N        0.88681    0.06686    0.73508    1.000
    N5251    N        0.90239    0.07394    0.67103    1.000
    Si5252   Si       0.89310    0.04001    0.69771    1.000
    Si5253   Si       0.93519    0.06008    0.73831    1.000
    N5254    N        0.87199    0.24874    0.70146    1.000
    N5255    N        0.89948    0.23424    0.63454    1.000
    Si5256   Si       0.88460    0.21866    0.67332    1.000
    N5257    N        0.87122    0.19319    0.73813    1.000
    N5258    N        0.88748    0.03428    0.84934    1.000
    Si5259   Si       0.88949    0.05572    0.78008    1.000
    N5260    N        0.89051    0.09098    0.80503    1.000
    Si5261   Si       0.92769    0.01383    0.85579    1.000
    Si5262   Si       0.92585    0.08050    0.83081    1.000
    N5263    N        0.91182    0.09627    0.86974    1.000
    N5264    N        0.92977    0.04210    0.77800    1.000
    Si5265   Si       0.87421    0.13002    0.79884    1.000
    Si5266   Si       0.87960    0.06791    0.87489    1.000
    Si5267   Si       0.88827    0.24467    0.81237    1.000
    N5268    N        0.90821    0.15383    0.78656    1.000
    N5269    N        0.92412    0.22240    0.82248    1.000
    Si5270   Si       0.90953    0.17869    0.75275    1.000
    N5271    N        0.92151    0.15808    0.85324    1.000
    Si5272   Si       0.92937    0.20002    0.86167    1.000
    N5273    N        0.91593    0.02630    0.96296    1.000
    N5274    N        0.88707    0.10392    0.96993    1.000
    Si5275   Si       0.89610    0.01483    0.92644    1.000
    N5276    N        0.87804    0.05442    0.91636    1.000
    Si5277   Si       0.92504    0.12108    0.95594    1.000
    Si5278   Si       0.89266    0.24386    0.91189    1.000
    N5279    N        0.89612    0.20838    0.88838    1.000
    Si5280   Si       0.92162    0.25190    0.98378    1.000
    N5281    N        0.89184    0.23657    0.95459    1.000
    N5282    N        0.89263    0.16854    0.97827    1.000
    Si5283   Si       0.90473    0.13560    0.88522    1.000
    N5284    N        0.92739    0.14881    0.92049    1.000
    N5285    N        0.89329    0.32151    0.05906    1.000
    Si5286   Si       0.88866    0.30536    0.10193    1.000
    Si5287   Si       0.92315    0.35074    0.05333    1.000
    Si5288   Si       0.87910    0.30500    0.02098    1.000
    N5289    N        0.88288    0.26172    0.10131    1.000
    N5290    N        0.91365    0.29237    0.99930    1.000
    N5291    N        0.93178    0.35357    0.00838    1.000
    N5292    N        0.91353    0.38669    0.07755    1.000
    Si5293   Si       0.87614    0.40736    0.06207    1.000
    N5294    N        0.89418    0.44681    0.06653    1.000
    Si5295   Si       0.89284    0.46014    0.10868    1.000
    N5296    N        0.89450    0.50347    0.12148    1.000
    N5297    N        0.92414    0.31573    0.12394    1.000
    Si5298   Si       0.88973    0.36964    0.20777    1.000
    N5299    N        0.89295    0.27193    0.16959    1.000
    N5300    N        0.89077    0.33743    0.17825    1.000
    Si5301   Si       0.91742    0.30570    0.16507    1.000
    N5302    N        0.92046    0.37566    0.23768    1.000
    N5303    N        0.92447    0.26411    0.23032    1.000
    Si5304   Si       0.88591    0.25845    0.21052    1.000
    N5305    N        0.88520    0.40896    0.18774    1.000
    N5306    N        0.92424    0.47729    0.18357    1.000
    Si5307   Si       0.91641    0.43612    0.17005    1.000
    N5308    N        0.92629    0.43881    0.12664    1.000
    N5309    N        0.91300    0.44930    0.24218    1.000
    Si5310   Si       0.92812    0.50585    0.14815    1.000
    N5311    N        0.89901    0.32419    0.34351    1.000
    N5312    N        0.91346    0.31652    0.27976    1.000
    Si5313   Si       0.87766    0.29315    0.27618    1.000
    N5314    N        0.87413    0.37566    0.30457    1.000
    N5315    N        0.89601    0.44202    0.30993    1.000
    Si5316   Si       0.89654    0.40324    0.32779    1.000
    Si5317   Si       0.91321    0.47004    0.33773    1.000
    Si5318   Si       0.87933    0.45153    0.26961    1.000
    N5319    N        0.89179    0.39894    0.36998    1.000
    N5320    N        0.86741    0.47812    0.36670    1.000
    Si5321   Si       0.91037    0.34977    0.45264    1.000
    N5322    N        0.88832    0.34476    0.41411    1.000
    N5323    N        0.88568    0.32032    0.47052    1.000
    Si5324   Si       0.91287    0.31929    0.38404    1.000
    N5325    N        0.90312    0.28345    0.40790    1.000
    N5326    N        0.92964    0.45824    0.37901    1.000
    N5327    N        0.88933    0.44625    0.42818    1.000
    N5328    N        0.90214    0.39074    0.46785    1.000
    Si5329   Si       0.89492    0.47770    0.39919    1.000
    Si5330   Si       0.91962    0.42251    0.44342    1.000
    Si5331   Si       0.93238    0.41301    0.37827    1.000
    N5332    N        0.92737    0.50907    0.47922    1.000
    N5333    N        0.90209    0.29160    0.60256    1.000
    Si5334   Si       0.87926    0.31940    0.57492    1.000
    N5335    N        0.91236    0.34161    0.55751    1.000
    Si5336   Si       0.89228    0.38015    0.57021    1.000
    Si5337   Si       0.89728    0.45557    0.54975    1.000
    N5338    N        0.89339    0.46861    0.59121    1.000
    N5339    N        0.89069    0.41308    0.53958    1.000
    N5340    N        0.90824    0.40298    0.60259    1.000
    Si5341   Si       0.92245    0.44282    0.61438    1.000
    Si5342   Si       0.87588    0.39957    0.50197    1.000
    Si5343   Si       0.91590    0.30562    0.64191    1.000
    N5344    N        0.90961    0.32036    0.72993    1.000
    Si5345   Si       0.89022    0.34398    0.69807    1.000
    N5346    N        0.88138    0.31323    0.66630    1.000
    N5347    N        0.91421    0.37681    0.68359    1.000
    N5348    N        0.91222    0.49686    0.71268    1.000
    Si5349   Si       0.90989    0.49080    0.66927    1.000
    N5350    N        0.91958    0.44862    0.65670    1.000
    N5351    N        0.89948    0.43187    0.72307    1.000
    Si5352   Si       0.88240    0.46999    0.73451    1.000
    Si5353   Si       0.89745    0.41868    0.67995    1.000
    Si5354   Si       0.89970    0.30578    0.76982    1.000
    N5355    N        0.88636    0.27978    0.83967    1.000
    N5356    N        0.90953    0.37454    0.82561    1.000
    Si5357   Si       0.91066    0.30007    0.86967    1.000
    N5358    N        0.88984    0.26200    0.77294    1.000
    Si5359   Si       0.92363    0.41473    0.83177    1.000
    N5360    N        0.88908    0.43224    0.85519    1.000
    N5361    N        0.88884    0.47420    0.77608    1.000
    Si5362   Si       0.89741    0.47609    0.85456    1.000
    Si5363   Si       0.91211    0.40162    0.75135    1.000
    N5364    N        0.92501    0.26988    0.89753    1.000
    Si5365   Si       0.91303    0.35370    0.92848    1.000
    N5366    N        0.89118    0.32708    0.90102    1.000
    N5367    N        0.89149    0.37924    0.95587    1.000
    Si5368   Si       0.89457    0.46770    0.93022    1.000
    N5369    N        0.90306    0.48982    0.89552    1.000
    Si5370   Si       0.90891    0.38733    0.99505    1.000
    N5371    N        0.89570    0.48333    0.97170    1.000
    Si5372   Si       0.90723    0.57502    0.03706    1.000
    N5373    N        0.91383    0.61615    0.02447    1.000
    N5374    N        0.90846    0.54398    0.00648    1.000
    N5375    N        0.87236    0.56928    0.11340    1.000
    N5376    N        0.87591    0.63483    0.07980    1.000
    Si5377   Si       0.90590    0.64953    0.05264    1.000
    N5378    N        0.90444    0.68737    0.03235    1.000
    Si5379   Si       0.90015    0.57729    0.14516    1.000
    N5380    N        0.90942    0.59788    0.23331    1.000
    Si5381   Si       0.89230    0.55656    0.24041    1.000
    N5382    N        0.92219    0.52498    0.23841    1.000
    N5383    N        0.87213    0.59181    0.17438    1.000
    Si5384   Si       0.87861    0.62773    0.22772    1.000
    N5385    N        0.92956    0.54968    0.15974    1.000
    Si5386   Si       0.92387    0.69078    0.15831    1.000
    N5387    N        0.89812    0.66285    0.13669    1.000
    N5388    N        0.90225    0.70562    0.19322    1.000
    Si5389   Si       0.91859    0.73964    0.21612    1.000
    Si5390   Si       0.91025    0.59128    0.30049    1.000
    N5391    N        0.88570    0.55764    0.28394    1.000
    N5392    N        0.89086    0.62805    0.30825    1.000
    N5393    N        0.90707    0.51234    0.32557    1.000
    Si5394   Si       0.87058    0.52261    0.30411    1.000
    N5395    N        0.89723    0.66625    0.36243    1.000
    N5396    N        0.91568    0.73017    0.25898    1.000
    Si5397   Si       0.88296    0.70135    0.26166    1.000
    Si5398   Si       0.92271    0.65188    0.28457    1.000
    N5399    N        0.89835    0.66156    0.25150    1.000
    N5400    N        0.90503    0.57317    0.45669    1.000
    Si5401   Si       0.89690    0.52952    0.45624    1.000
    N5402    N        0.90766    0.51672    0.41627    1.000
    N5403    N        0.90043    0.62714    0.42759    1.000
    Si5404   Si       0.87590    0.60891    0.46130    1.000
    Si5405   Si       0.88506    0.66056    0.40455    1.000
    Si5406   Si       0.91823    0.71314    0.45337    1.000
    N5407    N        0.90367    0.73405    0.49118    1.000
    N5408    N        0.88800    0.70013    0.42479    1.000
    Si5409   Si       0.91601    0.61501    0.59055    1.000
    Si5410   Si       0.88319    0.55898    0.56977    1.000
    N5411    N        0.88827    0.54382    0.52938    1.000
    N5412    N        0.89270    0.53583    0.60517    1.000
    N5413    N        0.92112    0.57956    0.56494    1.000
    Si5414   Si       0.91533    0.57788    0.51962    1.000
    N5415    N        0.89030    0.61162    0.50458    1.000
    N5416    N        0.87596    0.62940    0.57976    1.000
    N5417    N        0.89814    0.69359    0.60334    1.000
    Si5418   Si       0.89644    0.71712    0.53077    1.000
    Si5419   Si       0.89193    0.73603    0.59919    1.000
    N5420    N        0.87744    0.67809    0.53339    1.000
    N5421    N        0.87346    0.73973    0.55975    1.000
    Si5422   Si       0.92419    0.55377    0.62778    1.000
    N5423    N        0.90550    0.59624    0.62827    1.000
    Si5424   Si       0.89625    0.61394    0.72488    1.000
    Si5425   Si       0.88343    0.62463    0.65294    1.000
    N5426    N        0.91730    0.65442    0.66595    1.000
    N5427    N        0.92335    0.72299    0.65795    1.000
    Si5428   Si       0.88705    0.74336    0.67352    1.000
    N5429    N        0.89799    0.65573    0.73769    1.000
    Si5430   Si       0.89360    0.68634    0.64968    1.000
    N5431    N        0.89060    0.58702    0.75792    1.000
    N5432    N        0.91457    0.53333    0.79845    1.000
    N5433    N        0.89760    0.60002    0.84572    1.000
    Si5434   Si       0.87697    0.51144    0.79688    1.000
    Si5435   Si       0.92722    0.56589    0.77052    1.000
    N5436    N        0.88974    0.73647    0.81693    1.000
    Si5437   Si       0.89293    0.64324    0.84181    1.000
    Si5438   Si       0.90849    0.69767    0.80927    1.000
    N5439    N        0.87682    0.66587    0.80808    1.000
    N5440    N        0.92557    0.67395    0.84378    1.000
    Si5441   Si       0.87370    0.60331    0.88456    1.000
    Si5442   Si       0.91457    0.56403    0.94182    1.000
    N5443    N        0.90866    0.58945    0.90553    1.000
    Si5444   Si       0.87939    0.51949    0.98524    1.000
    N5445    N        0.87666    0.54318    0.94690    1.000
    Si5446   Si       0.92709    0.63026    0.98305    1.000
    N5447    N        0.89610    0.75208    0.92428    1.000
    N5448    N        0.91920    0.69152    0.90800    1.000
    N5449    N        0.89113    0.72093    0.98191    1.000
    N5450    N        0.89723    0.65267    0.96150    1.000
    Si5451   Si       0.90789    0.72997    0.88985    1.000
    Si5452   Si       0.90668    0.69609    0.94910    1.000
    N5453    N        0.90256    0.86624    0.04080    1.000
    N5454    N        0.92311    0.82225    0.09091    1.000
    N5455    N        0.87913    0.79619    0.02914    1.000
    Si5456   Si       0.91634    0.78740    0.00995    1.000
    Si5457   Si       0.88827    0.81585    0.11699    1.000
    Si5458   Si       0.92419    0.86482    0.08084    1.000
    N5459    N        0.90620    0.88714    0.11336    1.000
    Si5460   Si       0.91001    0.88884    0.00531    1.000
    N5461    N        0.89390    0.93259    0.06350    1.000
    Si5462   Si       0.87879    0.91955    0.10308    1.000
    N5463    N        0.88256    0.96858    0.99984    1.000
    N5464    N        0.88373    0.77335    0.12692    1.000
    Si5465   Si       0.91519    0.87074    0.15369    1.000
    Si5466   Si       0.90003    0.81652    0.19749    1.000
    N5467    N        0.89406    0.83258    0.15593    1.000
    N5468    N        0.90254    0.77381    0.19359    1.000
    Si5469   Si       0.91548    0.76433    0.15359    1.000
    Si5470   Si       0.91920    0.96839    0.15225    1.000
    N5471    N        0.90109    0.88762    0.19068    1.000
    N5472    N        0.89362    0.00493    0.16159    1.000
    N5473    N        0.88442    0.95174    0.12967    1.000
    Si5474   Si       0.92246    0.91521    0.21488    1.000
    N5475    N        0.90245    0.93537    0.24919    1.000
    N5476    N        0.90084    0.82331    0.33171    1.000
    Si5477   Si       0.91782    0.78214    0.33634    1.000
    N5478    N        0.88200    0.76093    0.32679    1.000
    N5479    N        0.89350    0.88079    0.36782    1.000
    Si5480   Si       0.92530    0.85280    0.31196    1.000
    N5481    N        0.90956    0.89014    0.29857    1.000
    N5482    N        0.90699    0.99332    0.31997    1.000
    Si5483   Si       0.87329    0.98010    0.34454    1.000
    N5484    N        0.90467    0.79784    0.45136    1.000
    Si5485   Si       0.89739    0.78969    0.40852    1.000
    Si5486   Si       0.88561    0.77165    0.48081    1.000
    N5487    N        0.92432    0.77610    0.37763    1.000
    N5488    N        0.92103    0.88103    0.45115    1.000
    N5489    N        0.87335    0.82808    0.39907    1.000
    N5490    N        0.91705    0.99923    0.44260    1.000
    Si5491   Si       0.92790    0.91807    0.43304    1.000
    N5492    N        0.87895    0.00313    0.37995    1.000
    N5493    N        0.89001    0.93667    0.41485    1.000
    Si5494   Si       0.87937    0.99490    0.42284    1.000
    N5495    N        0.88552    0.80427    0.51314    1.000
    N5496    N        0.90627    0.85243    0.56389    1.000
    Si5497   Si       0.91512    0.82706    0.53209    1.000
    Si5498   Si       0.92352    0.84287    0.60324    1.000
    N5499    N        0.88667    0.82851    0.62158    1.000
    Si5500   Si       0.89202    0.99625    0.51877    1.000
    N5501    N        0.91365    0.91218    0.51270    1.000
    N5502    N        0.91598    0.94914    0.56950    1.000
    Si5503   Si       0.88147    0.94717    0.59807    1.000
    N5504    N        0.89622    0.77369    0.70057    1.000
    Si5505   Si       0.92431    0.77850    0.73340    1.000
    N5506    N        0.87789    0.83345    0.72574    1.000
    Si5507   Si       0.91847    0.84675    0.74313    1.000
    Si5508   Si       0.91330    0.98732    0.64869    1.000
    Si5509   Si       0.90123    0.90387    0.63920    1.000
    N5510    N        0.90338    0.94654    0.63548    1.000
    Si5511   Si       0.90816    0.91278    0.71191    1.000
    N5512    N        0.88273    0.00412    0.67391    1.000
    N5513    N        0.92944    0.94924    0.71924    1.000
    N5514    N        0.88799    0.89031    0.67962    1.000
    N5515    N        0.90657    0.85825    0.78344    1.000
    Si5516   Si       0.88882    0.84170    0.82159    1.000
    N5517    N        0.91182    0.80694    0.82933    1.000
    N5518    N        0.88538    0.86274    0.86134    1.000
    Si5519   Si       0.91292    0.77068    0.80480    1.000
    N5520    N        0.89486    0.77558    0.76541    1.000
    Si5521   Si       0.89168    0.89794    0.77747    1.000
    Si5522   Si       0.91438    0.95302    0.82625    1.000
    N5523    N        0.91728    0.92987    0.78840    1.000
    N5524    N        0.92127    0.93025    0.86167    1.000
    N5525    N        0.87262    0.96905    0.83005    1.000
    Si5526   Si       0.92228    0.88674    0.86895    1.000
    Si5527   Si       0.90782    0.79296    0.92626    1.000
    N5528    N        0.91656    0.79957    0.96691    1.000
    N5529    N        0.92393    0.86806    0.97192    1.000
    N5530    N        0.87260    0.81183    0.91032    1.000
    N5531    N        0.93196    0.88293    0.91097    1.000
    N5532    N        0.91970    0.99621    0.89406    1.000
    Si5533   Si       0.89916    0.89022    0.93957    1.000
    N5534    N        0.90136    0.93467    0.93205    1.000
    N5535    N        0.87596    0.90551    0.98185    1.000
    Si5536   Si       0.92654    0.95268    0.90058    1.000
    Si5537   Si       0.91589    0.99680    0.99303    1.000
    N5538    N        0.96443    0.03224    0.07212    1.000
    N5539    N        0.97079    0.11236    0.05703    1.000
    Si5540   Si       0.96870    0.10756    0.01415    1.000
    N5541    N        0.95663    0.06537    0.00673    1.000
    Si5542   Si       0.93879    0.05213    0.04282    1.000
    Si5543   Si       0.93444    0.11412    0.07954    1.000
    N5544    N        0.95014    0.20919    0.08149    1.000
    Si5545   Si       0.97220    0.24562    0.08887    1.000
    Si5546   Si       0.93472    0.18140    0.11049    1.000
    N5547    N        0.93119    0.21815    0.01004    1.000
    Si5548   Si       0.96523    0.09239    0.14108    1.000
    N5549    N        0.96928    0.10552    0.18246    1.000
    N5550    N        0.96245    0.05048    0.14993    1.000
    Si5551   Si       0.96057    0.06422    0.19245    1.000
    Si5552   Si       0.97992    0.01142    0.14029    1.000
    N5553    N        0.92913    0.10426    0.12225    1.000
    N5554    N        0.98219    0.15641    0.23406    1.000
    N5555    N        0.97034    0.17612    0.13562    1.000
    N5556    N        0.97501    0.21425    0.19497    1.000
    Si5557   Si       0.96073    0.21396    0.15343    1.000
    N5558    N        0.97527    0.24793    0.13197    1.000
    Si5559   Si       0.95445    0.18949    0.22598    1.000
    Si5560   Si       0.95041    0.06314    0.33992    1.000
    Si5561   Si       0.98132    0.12201    0.34338    1.000
    N5562    N        0.93863    0.11150    0.34082    1.000
    N5563    N        0.96914    0.02151    0.33437    1.000
    N5564    N        0.96068    0.08981    0.25806    1.000
    Si5565   Si       0.97474    0.12869    0.26901    1.000
    N5566    N        0.95312    0.20590    0.33033    1.000
    Si5567   Si       0.96920    0.24683    0.33478    1.000
    N5568    N        0.93903    0.20662    0.26254    1.000
    N5569    N        0.93242    0.14468    0.28146    1.000
    Si5570   Si       0.94792    0.18593    0.36879    1.000
    N5571    N        0.97944    0.15610    0.37175    1.000
    Si5572   Si       0.95831    0.01485    0.37740    1.000
    N5573    N        0.94770    0.04440    0.48119    1.000
    Si5574   Si       0.98199    0.07319    0.46638    1.000
    N5575    N        0.96528    0.10925    0.48783    1.000
    N5576    N        0.98762    0.03199    0.40343    1.000
    N5577    N        0.94660    0.22015    0.39646    1.000
    Si5578   Si       0.94796    0.25848    0.49323    1.000
    Si5579   Si       0.97896    0.23401    0.42179    1.000
    N5580    N        0.97369    0.23532    0.46254    1.000
    Si5581   Si       0.94978    0.02660    0.59593    1.000
    N5582    N        0.95270    0.04882    0.55891    1.000
    Si5583   Si       0.95650    0.02615    0.52064    1.000
    N5584    N        0.94538    0.12947    0.55584    1.000
    Si5585   Si       0.97906    0.14630    0.57764    1.000
    N5586    N        0.97171    0.23940    0.52905    1.000
    Si5587   Si       0.95377    0.20721    0.54768    1.000
    N5588    N        0.96799    0.17809    0.51234    1.000
    N5589    N        0.97804    0.18939    0.58017    1.000
    Si5590   Si       0.98913    0.21188    0.49475    1.000
    N5591    N        0.95707    0.09602    0.73391    1.000
    N5592    N        0.96770    0.05132    0.62791    1.000
    Si5593   Si       0.95562    0.12447    0.70151    1.000
    N5594    N        0.95469    0.11390    0.65830    1.000
    Si5595   Si       0.93530    0.07881    0.63976    1.000
    N5596    N        0.93243    0.02544    0.71171    1.000
    Si5597   Si       0.94029    0.23765    0.64955    1.000
    Si5598   Si       0.95119    0.19696    0.71343    1.000
    N5599    N        0.98001    0.22406    0.64073    1.000
    N5600    N        0.93206    0.15695    0.71911    1.000
    N5601    N        0.92683    0.21350    0.68400    1.000
    N5602    N        0.95674    0.10982    0.81550    1.000
    N5603    N        0.95270    0.04797    0.84733    1.000
    Si5604   Si       0.96025    0.01159    0.78983    1.000
    Si5605   Si       0.95614    0.21699    0.79182    1.000
    N5606    N        0.97211    0.17977    0.80632    1.000
    Si5607   Si       0.94115    0.15076    0.81661    1.000
    N5608    N        0.98158    0.25122    0.79547    1.000
    N5609    N        0.93837    0.21037    0.75336    1.000
    N5610    N        0.95411    0.09033    0.94603    1.000
    Si5611   Si       0.95184    0.05150    0.96490    1.000
    N5612    N        0.98396    0.02883    0.94797    1.000
    Si5613   Si       0.98571    0.22895    0.95792    1.000
    Si5614   Si       0.96407    0.17224    0.91729    1.000
    N5615    N        0.96343    0.19341    0.95512    1.000
    N5616    N        0.94671    0.13735    0.99223    1.000
    Si5617   Si       0.93481    0.17929    0.98713    1.000
    N5618    N        0.96962    0.19838    0.88205    1.000
    N5619    N        0.96003    0.33563    0.07143    1.000
    Si5620   Si       0.97278    0.29762    0.05422    1.000
    N5621    N        0.98134    0.30411    0.01285    1.000
    Si5622   Si       0.96028    0.33897    0.11505    1.000
    N5623    N        0.94124    0.26487    0.06073    1.000
    N5624    N        0.96429    0.43071    0.06595    1.000
    Si5625   Si       0.94571    0.40994    0.09998    1.000
    N5626    N        0.93799    0.48530    0.02330    1.000
    Si5627   Si       0.93166    0.44587    0.04175    1.000
    N5628    N        0.92711    0.42443    0.00374    1.000
    N5629    N        0.95834    0.29214    0.17727    1.000
    Si5630   Si       0.95980    0.28735    0.22019    1.000
    N5631    N        0.96777    0.32723    0.23295    1.000
    N5632    N        0.96383    0.38179    0.12670    1.000
    N5633    N        0.97350    0.49091    0.23594    1.000
    Si5634   Si       0.97955    0.39885    0.16921    1.000
    N5635    N        0.96682    0.49717    0.13138    1.000
    Si5636   Si       0.93846    0.41481    0.23471    1.000
    N5637    N        0.94855    0.41508    0.19210    1.000
    Si5638   Si       0.93222    0.48386    0.22370    1.000
    N5639    N        0.96689    0.33802    0.29965    1.000
    N5640    N        0.94896    0.28267    0.35127    1.000
    Si5641   Si       0.93976    0.34582    0.26337    1.000
    Si5642   Si       0.93546    0.30864    0.31639    1.000
    N5643    N        0.96561    0.26492    0.29557    1.000
    N5644    N        0.95686    0.46904    0.32482    1.000
    Si5645   Si       0.96482    0.42951    0.30848    1.000
    N5646    N        0.96493    0.41526    0.26820    1.000
    N5647    N        0.94311    0.40321    0.33732    1.000
    Si5648   Si       0.97415    0.47789    0.36728    1.000
    Si5649   Si       0.97817    0.30389    0.37563    1.000
    N5650    N        0.95315    0.33632    0.38912    1.000
    N5651    N        0.95361    0.34709    0.45540    1.000
    Si5652   Si       0.96632    0.36428    0.41943    1.000
    Si5653   Si       0.98088    0.33187    0.48539    1.000
    N5654    N        0.99355    0.27528    0.40356    1.000
    N5655    N        0.95148    0.44774    0.46002    1.000
    N5656    N        0.94880    0.40458    0.41619    1.000
    Si5657   Si       0.98149    0.43078    0.43451    1.000
    N5658    N        0.98648    0.49903    0.49486    1.000
    Si5659   Si       0.94926    0.32501    0.54083    1.000
    Si5660   Si       0.97537    0.33090    0.60542    1.000
    N5661    N        0.97308    0.30540    0.57108    1.000
    N5662    N        0.97650    0.35541    0.52274    1.000
    N5663    N        0.95787    0.29925    0.50466    1.000
    N5664    N        0.95946    0.45389    0.59720    1.000
    Si5665   Si       0.97097    0.47767    0.56303    1.000
    N5666    N        0.93914    0.46329    0.53528    1.000
    Si5667   Si       0.94998    0.47422    0.49366    1.000
    Si5668   Si       0.95307    0.33068    0.73663    1.000
    N5669    N        0.94298    0.33960    0.63276    1.000
    N5670    N        0.96639    0.33732    0.69578    1.000
    Si5671   Si       0.95170    0.36686    0.66605    1.000
    Si5672   Si       0.97986    0.30308    0.67222    1.000
    N5673    N        0.94422    0.27951    0.66082    1.000
    N5674    N        0.98205    0.50157    0.70030    1.000
    N5675    N        0.98383    0.42045    0.72665    1.000
    N5676    N        0.98889    0.39090    0.65914    1.000
    N5677    N        0.94302    0.32211    0.85318    1.000
    Si5678   Si       0.97801    0.29534    0.79120    1.000
    N5679    N        0.93839    0.31339    0.78677    1.000
    N5680    N        0.97823    0.36875    0.80338    1.000
    Si5681   Si       0.94191    0.34836    0.81748    1.000
    Si5682   Si       0.98507    0.31954    0.86451    1.000
    N5683    N        0.94443    0.37209    0.74807    1.000
    Si5684   Si       0.97752    0.47596    0.84827    1.000
    N5685    N        0.96224    0.41459    0.84971    1.000
    Si5686   Si       0.97116    0.39841    0.76813    1.000
    N5687    N        0.95903    0.47969    0.76011    1.000
    N5688    N        0.93557    0.47233    0.83141    1.000
    N5689    N        0.93278    0.42222    0.78580    1.000
    Si5690   Si       0.93034    0.46598    0.78854    1.000
    N5691    N        0.94548    0.32550    0.94496    1.000
    Si5692   Si       0.97800    0.34557    0.92054    1.000
    Si5693   Si       0.95115    0.28761    0.92483    1.000
    N5694    N        0.94538    0.37483    0.90956    1.000
    Si5695   Si       0.94701    0.31799    0.98717    1.000
    N5696    N        0.98861    0.30192    0.90636    1.000
    N5697    N        0.95800    0.26203    0.96016    1.000
    N5698    N        0.93173    0.44475    0.93772    1.000
    N5699    N        0.97087    0.48522    0.89142    1.000
    Si5700   Si       0.93382    0.46283    0.98175    1.000
    N5701    N        0.97609    0.47580    0.96591    1.000
    Si5702   Si       0.97516    0.39659    0.88724    1.000
    Si5703   Si       0.97199    0.45775    0.92516    1.000
    N5704    N        0.94510    0.55768    0.05599    1.000
    Si5705   Si       0.94471    0.52805    0.02172    1.000
    Si5706   Si       0.98479    0.55728    0.07515    1.000
    N5707    N        0.98014    0.53702    0.99737    1.000
    Si5708   Si       0.98266    0.66872    0.07473    1.000
    N5709    N        0.97071    0.69988    0.03076    1.000
    Si5710   Si       0.97083    0.74257    0.04563    1.000
    N5711    N        0.94087    0.65565    0.07850    1.000
    Si5712   Si       0.97252    0.73382    0.11547    1.000
    N5713    N        0.93782    0.75188    0.02149    1.000
    Si5714   Si       0.93298    0.71079    0.00638    1.000
    Si5715   Si       0.93332    0.64469    0.11868    1.000
    N5716    N        0.93075    0.60291    0.12676    1.000
    N5717    N        0.98540    0.60634    0.16910    1.000
    N5718    N        0.97695    0.56875    0.23370    1.000
    Si5719   Si       0.96162    0.57827    0.14330    1.000
    Si5720   Si       0.95233    0.60381    0.23979    1.000
    N5721    N        0.99060    0.62936    0.23579    1.000
    N5722    N        0.96037    0.66708    0.14963    1.000
    N5723    N        0.93444    0.72802    0.13846    1.000
    N5724    N        0.96186    0.74766    0.20578    1.000
    N5725    N        0.97327    0.53128    0.29567    1.000
    Si5726   Si       0.95957    0.59715    0.35742    1.000
    Si5727   Si       0.94421    0.53341    0.32998    1.000
    N5728    N        0.94931    0.61500    0.28337    1.000
    Si5729   Si       0.96342    0.53167    0.25307    1.000
    N5730    N        0.93401    0.57479    0.33245    1.000
    Si5731   Si       0.94507    0.72694    0.29107    1.000
    N5732    N        0.96289    0.64179    0.35876    1.000
    Si5733   Si       0.93891    0.67731    0.35048    1.000
    N5734    N        0.93651    0.68613    0.30783    1.000
    N5735    N        0.94847    0.71214    0.36988    1.000
    N5736    N        0.98601    0.72332    0.27271    1.000
    N5737    N        0.95859    0.52033    0.36953    1.000
    N5738    N        0.94584    0.58296    0.39658    1.000
    Si5739   Si       0.94547    0.54008    0.40617    1.000
    N5740    N        0.96395    0.61572    0.46112    1.000
    N5741    N        0.97136    0.54448    0.44123    1.000
    Si5742   Si       0.96337    0.53470    0.48298    1.000
    Si5743   Si       0.93367    0.60027    0.43524    1.000
    N5744    N        0.97332    0.75800    0.49082    1.000
    N5745    N        0.94907    0.68818    0.47524    1.000
    N5746    N        0.94497    0.73896    0.43040    1.000
    Si5747   Si       0.95658    0.74912    0.38912    1.000
    Si5748   Si       0.97739    0.65459    0.47391    1.000
    Si5749   Si       0.96371    0.56258    0.57074    1.000
    N5750    N        0.96483    0.52041    0.56667    1.000
    N5751    N        0.95582    0.56911    0.50760    1.000
    N5752    N        0.96566    0.56388    0.61473    1.000
    Si5753   Si       0.98570    0.63354    0.56054    1.000
    Si5754   Si       0.98513    0.59907    0.49779    1.000
    N5755    N        0.93133    0.75447    0.59939    1.000
    N5756    N        0.94623    0.64399    0.57538    1.000
    Si5757   Si       0.95683    0.71986    0.50670    1.000
    N5758    N        0.96724    0.69728    0.61352    1.000
    Si5759   Si       0.93975    0.68675    0.58263    1.000
    N5760    N        0.93673    0.71054    0.54412    1.000
    Si5761   Si       0.94964    0.50543    0.72632    1.000
    N5762    N        0.93673    0.52016    0.65323    1.000
    N5763    N        0.93833    0.60532    0.70881    1.000
    Si5764   Si       0.97070    0.57774    0.71604    1.000
    Si5765   Si       0.97863    0.52606    0.66443    1.000
    N5766    N        0.94778    0.54803    0.73816    1.000
    N5767    N        0.98538    0.56820    0.67763    1.000
    N5768    N        0.97441    0.63017    0.64864    1.000
    Si5769   Si       0.98958    0.58952    0.64087    1.000
    Si5770   Si       0.95364    0.73352    0.63073    1.000
    N5771    N        0.98339    0.75210    0.65680    1.000
    Si5772   Si       0.95109    0.63982    0.68506    1.000
    N5773    N        0.95927    0.75260    0.73397    1.000
    N5774    N        0.96633    0.66551    0.71642    1.000
    N5775    N        0.96279    0.57239    0.79923    1.000
    Si5776   Si       0.95203    0.53736    0.82204    1.000
    N5777    N        0.96379    0.61582    0.85858    1.000
    N5778    N        0.94356    0.54493    0.86396    1.000
    Si5779   Si       0.93257    0.58626    0.86754    1.000
    N5780    N        0.98850    0.51176    0.82380    1.000
    N5781    N        0.95131    0.63696    0.78299    1.000
    N5782    N        0.95314    0.75770    0.80434    1.000
    Si5783   Si       0.97313    0.63966    0.82076    1.000
    Si5784   Si       0.96589    0.73233    0.77081    1.000
    Si5785   Si       0.97268    0.75585    0.84413    1.000
    N5786    N        0.93445    0.70078    0.77319    1.000
    N5787    N        0.94644    0.73403    0.87019    1.000
    Si5788   Si       0.94029    0.66304    0.75146    1.000
    N5789    N        0.94547    0.53342    0.93431    1.000
    N5790    N        0.93897    0.59307    0.96546    1.000
    Si5791   Si       0.98061    0.51944    0.95792    1.000
    Si5792   Si       0.93902    0.51392    0.89484    1.000
    Si5793   Si       0.98049    0.60597    0.96009    1.000
    N5794    N        0.94923    0.70567    0.96562    1.000
    Si5795   Si       0.95507    0.68923    0.87192    1.000
    N5796    N        0.97927    0.67041    0.90653    1.000
    Si5797   Si       0.98582    0.69814    0.93978    1.000
    N5798    N        0.96907    0.64404    0.98315    1.000
    Si5799   Si       0.95910    0.80015    0.09892    1.000
    N5800    N        0.94941    0.81735    0.01800    1.000
    N5801    N        0.98791    0.82545    0.07503    1.000
    Si5802   Si       0.98955    0.80932    0.03326    1.000
    N5803    N        0.96149    0.75987    0.08436    1.000
    Si5804   Si       0.93801    0.92609    0.05688    1.000
    N5805    N        0.95832    0.88985    0.07119    1.000
    N5806    N        0.95988    0.96318    0.06502    1.000
    Si5807   Si       0.93861    0.99707    0.08127    1.000
    N5808    N        0.93734    0.91965    0.01587    1.000
    N5809    N        0.94201    0.82640    0.20788    1.000
    N5810    N        0.94900    0.79290    0.14147    1.000
    N5811    N        0.95918    0.86413    0.15396    1.000
    Si5812   Si       0.96318    0.82301    0.16907    1.000
    Si5813   Si       0.95740    0.84986    0.24146    1.000
    N5814    N        0.95017    0.89317    0.24278    1.000
    N5815    N        0.94789    0.98426    0.12536    1.000
    Si5816   Si       0.98074    0.95060    0.18379    1.000
    N5817    N        0.93684    0.94411    0.18342    1.000
    N5818    N        0.98753    0.94431    0.22609    1.000
    N5819    N        0.95641    0.86462    0.34315    1.000
    Si5820   Si       0.97542    0.80072    0.29395    1.000
    N5821    N        0.94678    0.83408    0.28053    1.000
    N5822    N        0.95019    0.76738    0.31061    1.000
    N5823    N        0.95104    0.94635    0.30467    1.000
    Si5824   Si       0.94810    0.98979    0.30660    1.000
    N5825    N        0.96474    0.99851    0.26716    1.000
    Si5826   Si       0.93275    0.91939    0.27717    1.000
    N5827    N        0.96737    0.81002    0.45566    1.000
    N5828    N        0.94132    0.83802    0.40671    1.000
    Si5829   Si       0.93444    0.87221    0.38116    1.000
    Si5830   Si       0.98017    0.82016    0.41448    1.000
    Si5831   Si       0.97729    0.76511    0.44632    1.000
    Si5832   Si       0.92689    0.83546    0.45167    1.000
    N5833    N        0.98789    0.77788    0.40258    1.000
    N5834    N        0.98944    0.99622    0.46341    1.000
    N5835    N        0.96695    0.97511    0.39488    1.000
    Si5836   Si       0.98477    0.93522    0.39254    1.000
    N5837    N        0.98220    0.88870    0.48862    1.000
    Si5838   Si       0.94775    0.98424    0.46855    1.000
    N5839    N        0.95057    0.93977    0.46226    1.000
    Si5840   Si       0.93824    0.88662    0.49063    1.000
    N5841    N        0.95096    0.91005    0.39797    1.000
    N5842    N        0.95011    0.79765    0.54063    1.000
    Si5843   Si       0.95980    0.78058    0.57952    1.000
    N5844    N        0.95657    0.81608    0.60385    1.000
    Si5845   Si       0.96896    0.80702    0.50041    1.000
    N5846    N        0.93530    0.84248    0.49761    1.000
    N5847    N        0.93580    0.98699    0.51275    1.000
    N5848    N        0.97175    0.99064    0.58841    1.000
    N5849    N        0.97371    0.93669    0.54945    1.000
    Si5850   Si       0.95854    0.94975    0.58889    1.000
    Si5851   Si       0.93666    0.94673    0.53099    1.000
    N5852    N        0.93429    0.88369    0.72906    1.000
    Si5853   Si       0.98190    0.82328    0.70695    1.000
    N5854    N        0.94608    0.81580    0.72955    1.000
    N5855    N        0.97706    0.83785    0.66699    1.000
    N5856    N        0.93309    0.87711    0.62806    1.000
    N5857    N        0.97306    0.93148    0.62450    1.000
    Si5858   Si       0.97583    0.89673    0.72118    1.000
    Si5859   Si       0.98672    0.95092    0.66299    1.000
    Si5860   Si       0.97343    0.88974    0.64200    1.000
    N5861    N        0.98119    0.90973    0.68186    1.000
    N5862    N        0.95399    0.98282    0.66583    1.000
    Si5863   Si       0.95487    0.98878    0.70983    1.000
    N5864    N        0.95239    0.86041    0.85502    1.000
    Si5865   Si       0.94449    0.81809    0.85730    1.000
    N5866    N        0.98236    0.79816    0.84818    1.000
    N5867    N        0.96597    0.98377    0.75624    1.000
    Si5868   Si       0.94594    0.94503    0.76025    1.000
    N5869    N        0.98364    0.92247    0.75496    1.000
    N5870    N        0.94160    0.98662    0.82260    1.000
    Si5871   Si       0.94375    0.83125    0.97660    1.000
    N5872    N        0.97828    0.83794    0.95126    1.000
    Si5873   Si       0.96708    0.87706    0.93469    1.000
    N5874    N        0.93588    0.80429    0.89734    1.000
    N5875    N        0.97837    0.91039    0.96034    1.000
    Si5876   Si       0.97716    0.98521    0.94466    1.000
    N5877    N        0.95236    0.97633    0.97974    1.000
    N5878    N        0.96814    0.95737    0.91357    1.000
    Si5879   Si       0.96903    0.93752    0.99380    1.000
