# CIF file generated by openbabel 3.1.1, see https://openbabel.org
data_I
_chemical_name_common '3.01-37.aims'
_cell_length_a 39.9098
_cell_length_b 39.9098
_cell_length_c 39.9098
_cell_angle_alpha 90
_cell_angle_beta 90
_cell_angle_gamma 90
loop_
    _atom_site_label
    _atom_site_type_symbol
    _atom_site_fract_x
    _atom_site_fract_y
    _atom_site_fract_z
    _atom_site_occupancy
    N0       N        0.09410    0.05066    0.02079    1.000
    Si1      Si       0.01454    0.03923    0.03902    1.000
    N2       N        0.99110    0.05465    0.10741    1.000
    N3       N        0.04447    0.06319    0.05900    1.000
    N4       N        0.02656    0.03347    0.99705    1.000
    N5       N        0.15154    0.06627    0.05729    1.000
    N6       N        0.16232    0.01864    0.01036    1.000
    N7       N        0.20538    0.02814    0.06793    1.000
    Si8      Si       0.20236    0.02835    0.02567    1.000
    Si9      Si       0.13177    0.03486    0.03429    1.000
    Si10     Si       0.16515    0.03690    0.08566    1.000
    N11      N        0.22521    0.06397    0.01185    1.000
    Si12     Si       0.23520    0.04531    0.09296    1.000
    N13      N        0.13463    0.00610    0.06876    1.000
    N14      N        0.06345    0.06028    0.21381    1.000
    Si15     Si       0.03686    0.02607    0.20386    1.000
    N16      N        0.02224    0.04446    0.16760    1.000
    Si17     Si       0.00380    0.02347    0.13608    1.000
    N18      N        0.01697    0.01551    0.24255    1.000
    N19      N        0.12889    0.03499    0.19003    1.000
    N20      N        0.16080    0.04730    0.12680    1.000
    Si21     Si       0.13804    0.01792    0.15020    1.000
    Si22     Si       0.14456    0.01067    0.22401    1.000
    N23      N        0.18786    0.00843    0.22170    1.000
    Si24     Si       0.04906    0.02681    0.27027    1.000
    N25      N        0.07568    0.05845    0.28473    1.000
    Si26     Si       0.00545    0.04363    0.31792    1.000
    Si27     Si       0.09504    0.03597    0.35893    1.000
    Si28     Si       0.10769    0.02646    0.28612    1.000
    N29      N        0.02766    0.01019    0.30627    1.000
    N30      N        0.11081    0.01249    0.32609    1.000
    N31      N        0.20082    0.04736    0.29306    1.000
    N32      N        0.13899    0.03625    0.26018    1.000
    Si33     Si       0.23020    0.02183    0.31460    1.000
    Si34     Si       0.20626    0.03946    0.24823    1.000
    N35      N        0.05816    0.01767    0.37642    1.000
    Si36     Si       0.03883    0.04432    0.40419    1.000
    N37      N        0.06290    0.03934    0.44074    1.000
    N38      N        0.99922    0.02861    0.41264    1.000
    Si39     Si       0.04971    0.06582    0.47305    1.000
    N40      N        0.21541    0.04959    0.46290    1.000
    N41      N        0.23060    0.06474    0.38888    1.000
    N42      N        0.17187    0.01497    0.43291    1.000
    N43      N        0.14487    0.05782    0.48426    1.000
    N44      N        0.12487    0.03847    0.38912    1.000
    Si45     Si       0.17234    0.05502    0.45045    1.000
    Si46     Si       0.21124    0.00823    0.45115    1.000
    N47      N        0.01646    0.04597    0.57708    1.000
    N48      N        0.04493    0.03959    0.50809    1.000
    N49      N        0.11487    0.03196    0.54466    1.000
    Si50     Si       0.01865    0.04653    0.61996    1.000
    Si51     Si       0.03366    0.06345    0.54144    1.000
    N52      N        0.18084    0.02062    0.53420    1.000
    Si53     Si       0.14264    0.02216    0.51124    1.000
    Si54     Si       0.20360    0.05819    0.54460    1.000
    Si55     Si       0.21907    0.03290    0.61562    1.000
    N56      N        0.20235    0.06217    0.58871    1.000
    N57      N        0.24053    0.04085    0.53007    1.000
    N58      N        0.00173    0.03891    0.72458    1.000
    N59      N        0.05779    0.05744    0.63320    1.000
    N60      N        0.07154    0.05976    0.72334    1.000
    Si61     Si       0.07951    0.01818    0.64191    1.000
    Si62     Si       0.06911    0.01524    0.71584    1.000
    N63      N        0.00112    0.01047    0.63775    1.000
    N64      N        0.05439    0.00647    0.67662    1.000
    N65      N        0.15781    0.04807    0.70286    1.000
    N66      N        0.11845    0.02811    0.65494    1.000
    Si67     Si       0.13774    0.01434    0.68929    1.000
    N68      N        0.21903    0.04098    0.65903    1.000
    N69      N        0.06763    0.03604    0.83661    1.000
    N70      N        0.01345    0.03420    0.79501    1.000
    Si71     Si       0.02090    0.01537    0.83670    1.000
    Si72     Si       0.01171    0.01359    0.75740    1.000
    N73      N        0.99553    0.04092    0.85888    1.000
    Si74     Si       0.08085    0.00820    0.86700    1.000
    N75      N        0.17402    0.05080    0.77678    1.000
    N76      N        0.15044    0.05120    0.84445    1.000
    N77      N        0.23154    0.00825    0.86378    1.000
    N78      N        0.22925    0.00910    0.79201    1.000
    N79      N        0.99353    0.03179    0.92654    1.000
    Si80     Si       0.99647    0.04674    0.96694    1.000
    N81      N        0.08431    0.04174    0.95117    1.000
    Si82     Si       0.00751    0.05937    0.89673    1.000
    Si83     Si       0.07124    0.02680    0.99105    1.000
    N84      N        0.11161    0.02898    0.88898    1.000
    Si85     Si       0.11966    0.01895    0.93157    1.000
    Si86     Si       0.23101    0.03557    0.89804    1.000
    N87      N        0.15864    0.02962    0.94461    1.000
    Si88     Si       0.01540    0.08675    0.08492    1.000
    Si89     Si       0.07897    0.08246    0.04418    1.000
    N90      N        0.09850    0.09725    0.08060    1.000
    N91      N        0.07318    0.11665    0.01987    1.000
    Si92     Si       0.08519    0.10425    0.12048    1.000
    N93      N        0.04258    0.09772    0.12046    1.000
    Si94     Si       0.13924    0.10570    0.06379    1.000
    N95      N        0.15978    0.11771    0.10096    1.000
    N96      N        0.22247    0.07632    0.12042    1.000
    N97      N        0.03837    0.11403    0.18660    1.000
    Si98     Si       0.04435    0.08251    0.16033    1.000
    Si99     Si       0.04151    0.09537    0.22594    1.000
    N100     N        0.08953    0.07895    0.15798    1.000
    Si101    Si       0.10304    0.06775    0.19690    1.000
    N102     N        0.18244    0.10984    0.16408    1.000
    N103     N        0.19017    0.07697    0.23213    1.000
    Si104    Si       0.17892    0.08669    0.12924    1.000
    Si105    Si       0.20463    0.10646    0.20423    1.000
    N106     N        0.12458    0.09563    0.22358    1.000
    Si107    Si       0.06472    0.08931    0.31290    1.000
    N108     N        0.02281    0.08340    0.31252    1.000
    N109     N        0.08248    0.07612    0.34990    1.000
    Si110    Si       0.00088    0.10902    0.28691    1.000
    N111     N        0.00661    0.08799    0.24958    1.000
    N112     N        0.15314    0.09940    0.28921    1.000
    N113     N        0.21997    0.10356    0.32375    1.000
    Si114    Si       0.18307    0.08180    0.31579    1.000
    N115     N        0.16677    0.07892    0.35559    1.000
    Si116    Si       0.15132    0.07708    0.25016    1.000
    Si117    Si       0.06919    0.10507    0.38052    1.000
    N118     N        0.08069    0.09403    0.48358    1.000
    Si119    Si       0.00166    0.10196    0.41968    1.000
    N120     N        0.02449    0.09734    0.45645    1.000
    N121     N        0.03331    0.08503    0.39504    1.000
    N122     N        0.10600    0.10687    0.40516    1.000
    N123     N        0.16731    0.08395    0.42047    1.000
    Si124    Si       0.19770    0.09256    0.38729    1.000
    Si125    Si       0.13675    0.08026    0.38867    1.000
    Si126    Si       0.12261    0.09650    0.49266    1.000
    N127     N        0.06633    0.08412    0.56125    1.000
    N128     N        0.00519    0.09403    0.52549    1.000
    Si129    Si       0.11035    0.07420    0.56275    1.000
    Si130    Si       0.05363    0.11476    0.58904    1.000
    N131     N        0.12795    0.10445    0.53610    1.000
    N132     N        0.19409    0.09654    0.53020    1.000
    Si133    Si       0.18927    0.09801    0.61013    1.000
    N134     N        0.12152    0.07351    0.60416    1.000
    N135     N        0.22827    0.11748    0.61915    1.000
    N136     N        0.03054    0.09340    0.68571    1.000
    Si137    Si       0.06139    0.09604    0.65561    1.000
    N138     N        0.10410    0.09321    0.67211    1.000
    Si139    Si       0.03108    0.07293    0.72263    1.000
    Si140    Si       0.09667    0.09444    0.71639    1.000
    N141     N        0.99112    0.08166    0.63178    1.000
    Si142    Si       0.99060    0.10105    0.67009    1.000
    N143     N        0.13088    0.09676    0.74205    1.000
    N144     N        0.20041    0.08630    0.71954    1.000
    Si145    Si       0.23671    0.10005    0.73930    1.000
    Si146    Si       0.16463    0.07030    0.73944    1.000
    Si147    Si       0.12941    0.06982    0.64602    1.000
    N148     N        0.17065    0.08533    0.64704    1.000
    Si149    Si       0.19228    0.06675    0.68064    1.000
    N150     N        0.03840    0.09622    0.82241    1.000
    N151     N        0.10002    0.09886    0.85644    1.000
    Si152    Si       0.00915    0.07886    0.79489    1.000
    Si153    Si       0.06259    0.07571    0.85209    1.000
    N154     N        0.01793    0.09888    0.75426    1.000
    N155     N        0.15742    0.11308    0.80218    1.000
    N156     N        0.20997    0.07650    0.82821    1.000
    Si157    Si       0.16979    0.07281    0.81309    1.000
    Si158    Si       0.21055    0.09583    0.86613    1.000
    N159     N        0.23426    0.11958    0.77857    1.000
    N160     N        0.08696    0.11009    0.94723    1.000
    N161     N        0.02463    0.08168    0.95254    1.000
    Si162    Si       0.99941    0.11499    0.96567    1.000
    Si163    Si       0.06459    0.07666    0.93467    1.000
    N164     N        0.05005    0.07166    0.89259    1.000
    Si165    Si       0.12563    0.06731    0.87539    1.000
    Si166    Si       0.21853    0.09851    0.98602    1.000
    Si167    Si       0.12321    0.12551    0.92791    1.000
    N168     N        0.13960    0.08955    0.91272    1.000
    Si169    Si       0.17341    0.06932    0.93172    1.000
    N170     N        0.18053    0.09811    0.96427    1.000
    N171     N        0.20020    0.06760    0.89797    1.000
    Si172    Si       0.03786    0.13940    0.03271    1.000
    N173     N        0.01562    0.12892    0.06917    1.000
    N174     N        0.00695    0.12929    0.00518    1.000
    Si175    Si       0.99222    0.16363    0.08284    1.000
    N176     N        0.04598    0.18388    0.03747    1.000
    Si177    Si       0.14541    0.17864    0.04273    1.000
    N178     N        0.14673    0.13634    0.03541    1.000
    Si179    Si       0.14241    0.15327    0.11562    1.000
    N180     N        0.13137    0.18136    0.08349    1.000
    N181     N        0.21001    0.13836    0.00273    1.000
    N182     N        0.10132    0.14411    0.12964    1.000
    N183     N        0.09307    0.15851    0.20082    1.000
    Si184    Si       0.10599    0.13274    0.23192    1.000
    Si185    Si       0.05174    0.15584    0.18843    1.000
    N186     N        0.05009    0.17925    0.15136    1.000
    N187     N        0.02655    0.18000    0.21504    1.000
    Si188    Si       0.19530    0.15190    0.16609    1.000
    N189     N        0.20062    0.15013    0.20895    1.000
    Si190    Si       0.21351    0.18026    0.23642    1.000
    N191     N        0.16486    0.17620    0.14641    1.000
    N192     N        0.23087    0.14646    0.14003    1.000
    N193     N        0.01452    0.15002    0.28836    1.000
    Si194    Si       0.09080    0.15576    0.34311    1.000
    Si195    Si       0.05656    0.15393    0.27800    1.000
    N196     N        0.08192    0.13127    0.30817    1.000
    N197     N        0.98837    0.16872    0.35035    1.000
    N198     N        0.06703    0.12417    0.24774    1.000
    N199     N        0.18979    0.18498    0.27250    1.000
    N200     N        0.12496    0.15642    0.26570    1.000
    N201     N        0.13471    0.14471    0.34413    1.000
    Si202    Si       0.23642    0.13890    0.35231    1.000
    N203     N        0.22960    0.17720    0.32527    1.000
    Si204    Si       0.12733    0.13237    0.30069    1.000
    N205     N        0.05628    0.14570    0.37017    1.000
    N206     N        0.07259    0.15679    0.44190    1.000
    Si207    Si       0.02035    0.16600    0.37934    1.000
    N208     N        0.99914    0.14691    0.41371    1.000
    Si209    Si       0.05433    0.12611    0.46745    1.000
    Si210    Si       0.11250    0.14063    0.43274    1.000
    N211     N        0.12940    0.13454    0.47255    1.000
    N212     N        0.20070    0.13694    0.37975    1.000
    N213     N        0.13690    0.17028    0.40733    1.000
    Si214    Si       0.16336    0.16062    0.37472    1.000
    N215     N        0.02760    0.13980    0.56870    1.000
    Si216    Si       0.00834    0.13588    0.53010    1.000
    N217     N        0.03704    0.14922    0.49854    1.000
    Si218    Si       0.03026    0.18173    0.57733    1.000
    Si219    Si       0.15013    0.16339    0.60776    1.000
    N220     N        0.16505    0.16451    0.52160    1.000
    N221     N        0.16914    0.13010    0.58783    1.000
    Si222    Si       0.12913    0.17238    0.49693    1.000
    Si223    Si       0.16593    0.12508    0.54406    1.000
    Si224    Si       0.22128    0.15958    0.61962    1.000
    N225     N        0.05853    0.12882    0.62780    1.000
    Si226    Si       0.07803    0.16942    0.63041    1.000
    N227     N        0.02158    0.16727    0.71466    1.000
    Si228    Si       0.06374    0.17547    0.70801    1.000
    N229     N        0.08730    0.13850    0.70785    1.000
    Si230    Si       0.16979    0.16940    0.72094    1.000
    N231     N        0.11917    0.15656    0.63706    1.000
    N232     N        0.22619    0.16771    0.66398    1.000
    N233     N        0.21097    0.16272    0.73045    1.000
    Si234    Si       0.11784    0.13635    0.67515    1.000
    N235     N        0.15582    0.13990    0.69418    1.000
    N236     N        0.06329    0.15660    0.84626    1.000
    N237     N        0.02234    0.15638    0.78624    1.000
    Si238    Si       0.10283    0.14174    0.85789    1.000
    Si239    Si       0.05338    0.13526    0.80919    1.000
    Si240    Si       0.03197    0.18348    0.86594    1.000
    N241     N        0.09033    0.13071    0.78732    1.000
    Si242    Si       0.01017    0.14064    0.74947    1.000
    Si243    Si       0.17049    0.14804    0.82554    1.000
    N244     N        0.13251    0.16709    0.83796    1.000
    Si245    Si       0.22192    0.16078    0.77316    1.000
    N246     N        0.19706    0.17639    0.80337    1.000
    N247     N        0.14268    0.16728    0.75645    1.000
    N248     N        0.18385    0.13176    0.86330    1.000
    Si249    Si       0.12920    0.12839    0.77156    1.000
    N250     N        0.06829    0.16915    0.97399    1.000
    N251     N        0.00543    0.14428    0.93568    1.000
    Si252    Si       0.03537    0.17467    0.94458    1.000
    Si253    Si       0.09166    0.13455    0.98408    1.000
    N254     N        0.10936    0.15381    0.89907    1.000
    Si255    Si       0.17712    0.14313    0.97232    1.000
    N256     N        0.13340    0.15027    0.96506    1.000
    N257     N        0.19327    0.15512    0.92983    1.000
    Si258    Si       0.21151    0.15242    0.89024    1.000
    Si259    Si       0.04380    0.21061    0.07040    1.000
    N260     N        0.07739    0.21610    0.09717    1.000
    N261     N        0.01486    0.19603    0.09861    1.000
    Si262    Si       0.11472    0.24249    0.01551    1.000
    N263     N        0.11959    0.19991    0.01353    1.000
    Si264    Si       0.12055    0.22556    0.08673    1.000
    N265     N        0.15771    0.23392    0.10953    1.000
    N266     N        0.22388    0.21408    0.10249    1.000
    Si267    Si       0.18986    0.22860    0.08072    1.000
    N268     N        0.18078    0.20507    0.04404    1.000
    Si269    Si       0.20158    0.21350    0.00692    1.000
    Si270    Si       0.08579    0.18525    0.12950    1.000
    Si271    Si       0.02448    0.20932    0.13869    1.000
    N272     N        0.07745    0.22896    0.20858    1.000
    Si273    Si       0.04609    0.21489    0.23540    1.000
    N274     N        0.11005    0.21233    0.15702    1.000
    Si275    Si       0.10685    0.19949    0.20006    1.000
    N276     N        0.00993    0.23861    0.22911    1.000
    Si277    Si       0.99203    0.20324    0.20375    1.000
    N278     N        0.21177    0.21837    0.21635    1.000
    Si279    Si       0.15373    0.21781    0.14944    1.000
    N280     N        0.13946    0.20908    0.22614    1.000
    Si281    Si       0.17208    0.23777    0.21796    1.000
    N282     N        0.03299    0.21412    0.32865    1.000
    N283     N        0.06081    0.19716    0.27138    1.000
    N284     N        0.09637    0.19814    0.33501    1.000
    Si285    Si       0.06952    0.21776    0.30756    1.000
    Si286    Si       0.02109    0.23593    0.36379    1.000
    Si287    Si       0.00315    0.18508    0.31291    1.000
    Si288    Si       0.13532    0.21552    0.34175    1.000
    N289     N        0.15007    0.22504    0.29874    1.000
    N290     N        0.17497    0.20120    0.35505    1.000
    Si291    Si       0.19702    0.20263    0.31191    1.000
    Si292    Si       0.14736    0.19333    0.26553    1.000
    N293     N        0.09226    0.22649    0.42217    1.000
    N294     N        0.04571    0.21446    0.47055    1.000
    Si295    Si       0.05868    0.20011    0.43164    1.000
    N296     N        0.02955    0.20663    0.39708    1.000
    N297     N        0.16248    0.23763    0.41320    1.000
    Si298    Si       0.15606    0.24159    0.48090    1.000
    Si299    Si       0.13228    0.20901    0.42594    1.000
    N300     N        0.13482    0.20482    0.46857    1.000
    Si301    Si       0.19481    0.22985    0.38241    1.000
    N302     N        0.19511    0.22319    0.48802    1.000
    N303     N        0.23301    0.22532    0.40141    1.000
    Si304    Si       0.10030    0.20531    0.56441    1.000
    N305     N        0.02564    0.20010    0.53816    1.000
    Si306    Si       0.05306    0.18772    0.50590    1.000
    N307     N        0.00157    0.18730    0.60798    1.000
    Si308    Si       0.00656    0.23801    0.53728    1.000
    N309     N        0.09614    0.19021    0.52271    1.000
    N310     N        0.07155    0.18659    0.59125    1.000
    Si311    Si       0.19557    0.19605    0.52269    1.000
    N312     N        0.13718    0.19773    0.58426    1.000
    Si313    Si       0.17419    0.21891    0.59398    1.000
    N314     N        0.19762    0.22251    0.55810    1.000
    N315     N        0.08180    0.20283    0.73936    1.000
    Si316    Si       0.07465    0.23414    0.66707    1.000
    N317     N        0.06813    0.19100    0.66738    1.000
    Si318    Si       0.05587    0.23846    0.74429    1.000
    Si319    Si       0.19821    0.20100    0.65866    1.000
    N320     N        0.22410    0.23553    0.65712    1.000
    N321     N        0.17157    0.20276    0.69340    1.000
    Si322    Si       0.14594    0.23454    0.70300    1.000
    N323     N        0.22907    0.23655    0.72955    1.000
    N324     N        0.18658    0.18495    0.62014    1.000
    N325     N        0.13953    0.23728    0.74712    1.000
    N326     N        0.01769    0.21136    0.83486    1.000
    N327     N        0.02241    0.22223    0.76593    1.000
    Si328    Si       0.00751    0.19428    0.79548    1.000
    N329     N        0.10809    0.22116    0.80616    1.000
    Si330    Si       0.11704    0.20322    0.76564    1.000
    Si331    Si       0.13424    0.20991    0.84102    1.000
    Si332    Si       0.20808    0.21664    0.81709    1.000
    N333     N        0.17557    0.22196    0.84911    1.000
    N334     N        0.10820    0.22226    0.87480    1.000
    N335     N        0.01936    0.20781    0.96958    1.000
    Si336    Si       0.09292    0.19257    0.90496    1.000
    N337     N        0.10782    0.21226    0.94217    1.000
    N338     N        0.04870    0.19143    0.90672    1.000
    N339     N        0.07276    0.24693    0.99764    1.000
    Si340    Si       0.05485    0.20601    0.99575    1.000
    N341     N        0.18115    0.23387    0.92530    1.000
    Si342    Si       0.13248    0.19361    0.97259    1.000
    Si343    Si       0.20256    0.19697    0.93551    1.000
    N344     N        0.22933    0.19183    0.89498    1.000
    N345     N        0.17697    0.19280    0.97746    1.000
    Si346    Si       0.05059    0.27373    0.02405    1.000
    N347     N        0.03231    0.24944    0.05514    1.000
    N348     N        0.00121    0.28212    0.10773    1.000
    Si349    Si       0.99671    0.26740    0.06805    1.000
    N350     N        0.01827    0.29565    0.00607    1.000
    Si351    Si       0.15157    0.28603    0.06065    1.000
    N352     N        0.19402    0.27073    0.06360    1.000
    Si353    Si       0.20005    0.28701    0.02159    1.000
    Si354    Si       0.21945    0.29739    0.09073    1.000
    N355     N        0.12486    0.25264    0.05497    1.000
    N356     N        0.04167    0.24732    0.15395    1.000
    Si357    Si       0.01292    0.28074    0.14931    1.000
    N358     N        0.10216    0.28335    0.15990    1.000
    Si359    Si       0.99186    0.28036    0.22041    1.000
    Si360    Si       0.08279    0.24624    0.16935    1.000
    N361     N        0.21280    0.29030    0.19929    1.000
    Si362    Si       0.14345    0.29058    0.17398    1.000
    N363     N        0.22180    0.28223    0.13079    1.000
    N364     N        0.16276    0.25019    0.17754    1.000
    N365     N        0.17837    0.26630    0.24978    1.000
    N366     N        0.08191    0.26139    0.30497    1.000
    N367     N        0.03372    0.27669    0.35703    1.000
    Si368    Si       0.05563    0.28961    0.32258    1.000
    Si369    Si       0.11687    0.28164    0.32204    1.000
    N370     N        0.13274    0.25689    0.35543    1.000
    Si371    Si       0.17385    0.25950    0.29080    1.000
    N372     N        0.15324    0.29795    0.30368    1.000
    N373     N        0.21260    0.24289    0.30423    1.000
    Si374    Si       0.03034    0.25583    0.47629    1.000
    Si375    Si       0.09379    0.26527    0.43985    1.000
    N376     N        0.06060    0.28354    0.45744    1.000
    N377     N        0.11162    0.29113    0.41055    1.000
    N378     N        0.99287    0.26500    0.45811    1.000
    N379     N        0.13185    0.27622    0.46612    1.000
    N380     N        0.22043    0.27902    0.44626    1.000
    N381     N        0.19682    0.27021    0.36845    1.000
    Si382    Si       0.22788    0.24956    0.48073    1.000
    Si383    Si       0.15532    0.27518    0.38892    1.000
    N384     N        0.03374    0.26587    0.51816    1.000
    Si385    Si       0.06709    0.28044    0.54149    1.000
    Si386    Si       0.08442    0.27449    0.60200    1.000
    N387     N        0.09061    0.24881    0.56593    1.000
    N388     N        0.00322    0.24639    0.58048    1.000
    N389     N        0.05933    0.30262    0.57905    1.000
    Si390    Si       0.01641    0.26196    0.62141    1.000
    Si391    Si       0.19153    0.26260    0.54055    1.000
    N392     N        0.15356    0.26027    0.52200    1.000
    Si393    Si       0.19412    0.29000    0.61092    1.000
    N394     N        0.22967    0.26980    0.51930    1.000
    Si395    Si       0.13195    0.29584    0.50793    1.000
    N396     N        0.19232    0.29574    0.56934    1.000
    N397     N        0.16970    0.25343    0.61721    1.000
    N398     N        0.05000    0.24937    0.70072    1.000
    N399     N        0.05905    0.25487    0.63165    1.000
    Si400    Si       0.03187    0.29003    0.70821    1.000
    N401     N        0.99363    0.29822    0.69069    1.000
    N402     N        0.11367    0.29468    0.62820    1.000
    N403     N        0.00612    0.30519    0.62517    1.000
    N404     N        0.17115    0.26974    0.68970    1.000
    Si405    Si       0.21339    0.25596    0.69530    1.000
    Si406    Si       0.14499    0.27055    0.64918    1.000
    N407     N        0.11725    0.24260    0.67192    1.000
    N408     N        0.20249    0.29219    0.74792    1.000
    N409     N        0.03796    0.27126    0.81752    1.000
    N410     N        0.08272    0.26642    0.76667    1.000
    N411     N        0.09699    0.28299    0.84195    1.000
    Si412    Si       0.07946    0.25562    0.81000    1.000
    Si413    Si       0.00304    0.25279    0.83560    1.000
    N414     N        0.02319    0.28350    0.75063    1.000
    Si415    Si       0.99256    0.25528    0.76163    1.000
    N416     N        0.99372    0.26332    0.87659    1.000
    N417     N        0.14922    0.28727    0.79825    1.000
    Si418    Si       0.12608    0.27511    0.76360    1.000
    Si419    Si       0.19082    0.29100    0.78963    1.000
    N420     N        0.21168    0.25287    0.79310    1.000
    Si421    Si       0.13872    0.29858    0.83946    1.000
    N422     N        0.01964    0.30390    0.93207    1.000
    Si423    Si       0.99717    0.29875    0.96848    1.000
    Si424    Si       0.09782    0.25258    0.95347    1.000
    N425     N        0.08939    0.27835    0.92078    1.000
    Si426    Si       0.10823    0.26462    0.88427    1.000
    Si427    Si       0.00448    0.30296    0.89037    1.000
    N428     N        0.13233    0.25766    0.97916    1.000
    N429     N        0.22006    0.26486    0.88117    1.000
    Si430    Si       0.17903    0.24899    0.88455    1.000
    N431     N        0.19966    0.25417    0.99343    1.000
    N432     N        0.14889    0.27860    0.87690    1.000
    N433     N        0.17308    0.30019    0.95204    1.000
    Si434    Si       0.17169    0.25823    0.96066    1.000
    Si435    Si       0.08938    0.34253    0.01419    1.000
    Si436    Si       0.09722    0.32553    0.07502    1.000
    N437     N        0.07737    0.33396    0.11160    1.000
    N438     N        0.00781    0.35531    0.10287    1.000
    Si439    Si       0.99279    0.32835    0.02265    1.000
    N440     N        0.07693    0.30616    0.03946    1.000
    N441     N        0.11182    0.35633    0.04821    1.000
    N442     N        0.19752    0.33464    0.08894    1.000
    Si443    Si       0.15914    0.33744    0.11300    1.000
    N444     N        0.22917    0.31604    0.01289    1.000
    N445     N        0.13391    0.30907    0.09280    1.000
    N446     N        0.16119    0.30583    0.02221    1.000
    Si447    Si       0.01237    0.33858    0.19120    1.000
    N448     N        0.08906    0.34835    0.18276    1.000
    N449     N        0.03374    0.31607    0.16234    1.000
    Si450    Si       0.07735    0.31919    0.15345    1.000
    N451     N        0.01574    0.31578    0.22765    1.000
    Si452    Si       0.11037    0.33873    0.22030    1.000
    N453     N        0.08076    0.33248    0.25078    1.000
    Si454    Si       0.20915    0.31115    0.16048    1.000
    Si455    Si       0.18191    0.30383    0.23096    1.000
    N456     N        0.16751    0.31998    0.15135    1.000
    N457     N        0.14287    0.30876    0.21291    1.000
    N458     N        0.00815    0.34579    0.35367    1.000
    N459     N        0.03003    0.31786    0.29778    1.000
    Si460    Si       0.03804    0.33765    0.25975    1.000
    N461     N        0.08948    0.30879    0.34450    1.000
    Si462    Si       0.99255    0.33050    0.31745    1.000
    N463     N        0.20600    0.33522    0.33515    1.000
    Si464    Si       0.17710    0.33572    0.30231    1.000
    N465     N        0.19409    0.33834    0.25945    1.000
    Si466    Si       0.22211    0.30387    0.36291    1.000
    Si467    Si       0.23736    0.33916    0.26525    1.000
    Si468    Si       0.01862    0.31182    0.37691    1.000
    N469     N        0.07066    0.35023    0.46587    1.000
    Si470    Si       0.09021    0.32098    0.38764    1.000
    Si471    Si       0.04443    0.32167    0.44750    1.000
    N472     N        0.00111    0.33490    0.45267    1.000
    N473     N        0.04914    0.32139    0.40374    1.000
    N474     N        0.16905    0.31259    0.40982    1.000
    N475     N        0.23531    0.32747    0.39803    1.000
    Si476    Si       0.13858    0.30997    0.43952    1.000
    N477     N        0.13311    0.34588    0.46350    1.000
    N478     N        0.21909    0.34827    0.45866    1.000
    Si479    Si       0.20706    0.31618    0.43117    1.000
    Si480    Si       0.03371    0.32988    0.60020    1.000
    Si481    Si       0.07870    0.34707    0.50834    1.000
    N482     N        0.00162    0.34592    0.57555    1.000
    N483     N        0.09224    0.30703    0.52009    1.000
    N484     N        0.15858    0.32667    0.52086    1.000
    Si485    Si       0.18923    0.33646    0.55145    1.000
    N486     N        0.22756    0.34614    0.52948    1.000
    Si487    Si       0.10204    0.33558    0.71451    1.000
    N488     N        0.06474    0.31585    0.70112    1.000
    N489     N        0.04659    0.36429    0.62341    1.000
    Si490    Si       0.23551    0.33143    0.68775    1.000
    N491     N        0.13313    0.30572    0.73456    1.000
    Si492    Si       0.17374    0.30444    0.71841    1.000
    Si493    Si       0.13076    0.33215    0.64103    1.000
    N494     N        0.17040    0.31439    0.63671    1.000
    N495     N        0.19246    0.33739    0.69903    1.000
    N496     N        0.12578    0.34971    0.68099    1.000
    N497     N        0.06270    0.32711    0.79833    1.000
    Si498    Si       0.07071    0.31705    0.84060    1.000
    N499     N        0.09261    0.35242    0.85530    1.000
    N500     N        0.99312    0.32434    0.80697    1.000
    Si501    Si       0.99896    0.35100    0.84235    1.000
    N502     N        0.02367    0.35232    0.75089    1.000
    Si503    Si       0.02828    0.30357    0.78853    1.000
    N504     N        0.20811    0.31932    0.81568    1.000
    N505     N        0.15195    0.33880    0.84215    1.000
    Si506    Si       0.19403    0.34771    0.84594    1.000
    N507     N        0.04500    0.31371    0.87587    1.000
    Si508    Si       0.06142    0.31204    0.91830    1.000
    N509     N        0.07311    0.35198    0.92160    1.000
    N510     N        0.11429    0.33531    0.98001    1.000
    N511     N        0.21890    0.33858    0.87943    1.000
    Si512    Si       0.15627    0.32254    0.98405    1.000
    N513     N        0.17620    0.36218    0.97835    1.000
    N514     N        0.05121    0.38879    0.07136    1.000
    Si515    Si       0.00817    0.38801    0.07234    1.000
    Si516    Si       0.04954    0.36600    0.10977    1.000
    N517     N        0.99266    0.36924    0.03665    1.000
    N518     N        0.99876    0.42344    0.09828    1.000
    Si519    Si       0.14021    0.38442    0.06252    1.000
    N520     N        0.18094    0.38626    0.04725    1.000
    N521     N        0.14993    0.37830    0.10498    1.000
    Si522    Si       0.20977    0.37443    0.07880    1.000
    N523     N        0.20992    0.39761    0.11446    1.000
    Si524    Si       0.19180    0.39332    0.00429    1.000
    Si525    Si       0.16881    0.41440    0.12018    1.000
    N526     N        0.23339    0.39326    0.99974    1.000
    Si527    Si       0.06554    0.38581    0.17803    1.000
    N528     N        0.02538    0.37870    0.19512    1.000
    Si529    Si       0.00452    0.40245    0.22466    1.000
    N530     N        0.05384    0.39821    0.13798    1.000
    Si531    Si       0.11486    0.41248    0.23584    1.000
    N532     N        0.08561    0.41483    0.20353    1.000
    N533     N        0.13434    0.37367    0.23061    1.000
    N534     N        0.19859    0.40435    0.24036    1.000
    N535     N        0.23588    0.41509    0.18213    1.000
    Si536    Si       0.23659    0.38738    0.14779    1.000
    N537     N        0.02100    0.37855    0.25959    1.000
    N538     N        0.09408    0.37875    0.33766    1.000
    Si539    Si       0.00722    0.38749    0.36517    1.000
    N540     N        0.00030    0.41334    0.33153    1.000
    Si541    Si       0.99465    0.39803    0.29167    1.000
    N542     N        0.09617    0.41319    0.27831    1.000
    Si543    Si       0.12054    0.39646    0.31082    1.000
    Si544    Si       0.23146    0.37145    0.33684    1.000
    N545     N        0.20667    0.40575    0.33332    1.000
    N546     N        0.15324    0.37093    0.29473    1.000
    Si547    Si       0.17075    0.37441    0.25430    1.000
    Si548    Si       0.08660    0.38817    0.37793    1.000
    N549     N        0.04420    0.39629    0.38475    1.000
    N550     N        0.99997    0.40872    0.47404    1.000
    Si551    Si       0.10376    0.37014    0.44610    1.000
    N552     N        0.10710    0.41220    0.45334    1.000
    N553     N        0.10544    0.35865    0.40283    1.000
    Si554    Si       0.21701    0.37034    0.49547    1.000
    Si555    Si       0.07856    0.40215    0.53573    1.000
    N556     N        0.08294    0.41208    0.57812    1.000
    Si557    Si       0.00925    0.37049    0.54341    1.000
    N558     N        0.00723    0.41406    0.54772    1.000
    N559     N        0.10959    0.37696    0.51978    1.000
    N560     N        0.04991    0.36994    0.53097    1.000
    Si561    Si       0.08168    0.38643    0.61323    1.000
    Si562    Si       0.15678    0.38884    0.61240    1.000
    N563     N        0.17669    0.36947    0.57912    1.000
    Si564    Si       0.14605    0.36377    0.50240    1.000
    N565     N        0.11972    0.36532    0.61567    1.000
    N566     N        0.17986    0.39092    0.50505    1.000
    Si567    Si       0.01116    0.38408    0.64057    1.000
    N568     N        0.00867    0.39312    0.68386    1.000
    Si569    Si       0.00262    0.38291    0.72671    1.000
    N570     N        0.09533    0.36364    0.74549    1.000
    Si571    Si       0.16406    0.37068    0.68909    1.000
    N572     N        0.17781    0.39392    0.65209    1.000
    N573     N        0.15487    0.39546    0.72510    1.000
    N574     N        0.05666    0.40089    0.79097    1.000
    Si575    Si       0.02518    0.40569    0.82104    1.000
    N576     N        0.03235    0.37511    0.85380    1.000
    Si577    Si       0.06164    0.36231    0.77255    1.000
    N578     N        0.13446    0.39321    0.79714    1.000
    N579     N        0.19423    0.39131    0.83952    1.000
    Si580    Si       0.12525    0.37382    0.83678    1.000
    Si581    Si       0.12167    0.39708    0.75466    1.000
    Si582    Si       0.17347    0.41419    0.80627    1.000
    N583     N        0.13695    0.40663    0.86511    1.000
    N584     N        0.20136    0.41999    0.77050    1.000
    Si585    Si       0.23928    0.39910    0.83896    1.000
    Si586    Si       0.17891    0.41050    0.87589    1.000
    N587     N        0.07376    0.41187    0.88675    1.000
    Si588    Si       0.06308    0.36983    0.88321    1.000
    N589     N        0.00468    0.41271    0.97970    1.000
    Si590    Si       0.04602    0.41303    0.98897    1.000
    N591     N        0.06803    0.37495    0.99386    1.000
    N592     N        0.00557    0.41651    0.90932    1.000
    Si593    Si       0.09360    0.36736    0.95781    1.000
    N594     N        0.18701    0.38853    0.91228    1.000
    Si595    Si       0.16379    0.39088    0.94885    1.000
    N596     N        0.12198    0.39761    0.94772    1.000
    Si597    Si       0.22661    0.37190    0.90543    1.000
    N598     N        0.06678    0.45056    0.09101    1.000
    N599     N        0.05511    0.43887    0.02247    1.000
    Si600    Si       0.03847    0.43419    0.12027    1.000
    Si601    Si       0.07219    0.42308    0.05800    1.000
    N602     N        0.23933    0.47809    0.99957    1.000
    N603     N        0.16616    0.45025    0.09501    1.000
    Si604    Si       0.14167    0.45862    0.05888    1.000
    N605     N        0.17173    0.46653    0.02707    1.000
    N606     N        0.22484    0.47579    0.06909    1.000
    N607     N        0.11779    0.42140    0.05654    1.000
    Si608    Si       0.06315    0.45296    0.20509    1.000
    N609     N        0.02022    0.44476    0.21616    1.000
    N610     N        0.02624    0.46723    0.14433    1.000
    N611     N        0.07568    0.47027    0.24219    1.000
    N612     N        0.16543    0.42191    0.16087    1.000
    Si613    Si       0.20297    0.44226    0.17230    1.000
    N614     N        0.21611    0.46959    0.14277    1.000
    N615     N        0.19086    0.46591    0.20658    1.000
    Si616    Si       0.18341    0.44538    0.24260    1.000
    N617     N        0.13941    0.44632    0.24162    1.000
    Si618    Si       0.07746    0.45249    0.28261    1.000
    N619     N        0.03575    0.45287    0.28995    1.000
    Si620    Si       0.01391    0.45560    0.32750    1.000
    Si621    Si       0.00893    0.46205    0.25634    1.000
    N622     N        0.04425    0.46793    0.35583    1.000
    N623     N        0.19339    0.45649    0.28331    1.000
    Si624    Si       0.17982    0.43850    0.32014    1.000
    N625     N        0.13948    0.42737    0.33262    1.000
    Si626    Si       0.13641    0.45711    0.36530    1.000
    N627     N        0.17369    0.47378    0.34616    1.000
    N628     N        0.02381    0.45296    0.41968    1.000
    Si629    Si       0.04947    0.43894    0.38817    1.000
    N630     N        0.09506    0.43029    0.38705    1.000
    Si631    Si       0.10710    0.44463    0.48277    1.000
    N632     N        0.10112    0.47460    0.44925    1.000
    Si633    Si       0.99534    0.42347    0.43440    1.000
    Si634    Si       0.11332    0.44157    0.42344    1.000
    N635     N        0.14919    0.45267    0.40905    1.000
    Si636    Si       0.18447    0.43142    0.49443    1.000
    Si637    Si       0.18572    0.46592    0.43122    1.000
    N638     N        0.20081    0.42924    0.45418    1.000
    N639     N        0.21174    0.47113    0.39854    1.000
    N640     N        0.14858    0.45247    0.49513    1.000
    N641     N        0.07825    0.44267    0.51516    1.000
    Si642    Si       0.00884    0.43857    0.58430    1.000
    N643     N        0.03885    0.46937    0.58133    1.000
    Si644    Si       0.10505    0.44687    0.59832    1.000
    Si645    Si       0.06592    0.47362    0.54678    1.000
    N646     N        0.00225    0.47069    0.51796    1.000
    N647     N        0.10567    0.47871    0.56574    1.000
    Si648    Si       0.99071    0.42907    0.51163    1.000
    N649     N        0.21376    0.45280    0.51971    1.000
    N650     N        0.14548    0.43387    0.60806    1.000
    N651     N        0.20213    0.46705    0.58771    1.000
    Si652    Si       0.17195    0.46769    0.61808    1.000
    N653     N        0.01401    0.42294    0.62442    1.000
    Si654    Si       0.08742    0.45798    0.65895    1.000
    N655     N        0.05066    0.46306    0.68005    1.000
    Si656    Si       0.01875    0.43474    0.69321    1.000
    N657     N        0.08517    0.41933    0.64185    1.000
    N658     N        0.02532    0.42227    0.73401    1.000
    N659     N        0.09882    0.43341    0.74534    1.000
    N660     N        0.15899    0.46371    0.73739    1.000
    N661     N        0.19798    0.46717    0.65250    1.000
    Si662    Si       0.11530    0.46744    0.72556    1.000
    N663     N        0.21579    0.42415    0.70311    1.000
    Si664    Si       0.18243    0.42752    0.73187    1.000
    Si665    Si       0.20694    0.42513    0.65937    1.000
    N666     N        0.12045    0.47507    0.68246    1.000
    N667     N        0.23873    0.42213    0.62952    1.000
    Si668    Si       0.05717    0.43343    0.75889    1.000
    N669     N        0.01600    0.44429    0.83727    1.000
    N670     N        0.04558    0.46972    0.77642    1.000
    Si671    Si       0.02740    0.48090    0.81273    1.000
    N672     N        0.11847    0.47112    0.85991    1.000
    N673     N        0.16499    0.45728    0.80759    1.000
    Si674    Si       0.23435    0.46369    0.85443    1.000
    Si675    Si       0.23456    0.44770    0.77972    1.000
    Si676    Si       0.15898    0.47333    0.84565    1.000
    N677     N        0.19142    0.45308    0.86924    1.000
    Si678    Si       0.00130    0.44521    0.87720    1.000
    Si679    Si       0.04630    0.43277    0.91428    1.000
    N680     N        0.03330    0.46945    0.89499    1.000
    Si681    Si       0.10674    0.43867    0.95485    1.000
    N682     N        0.06423    0.42944    0.95326    1.000
    Si683    Si       0.11017    0.43443    0.88177    1.000
    Si684    Si       0.23390    0.47743    0.95599    1.000
    N685     N        0.11626    0.45876    0.91888    1.000
    N686     N        0.17926    0.42378    0.97372    1.000
    N687     N        0.12473    0.46888    0.98278    1.000
    Si688    Si       0.16777    0.46342    0.98324    1.000
    N689     N        0.04289    0.50101    0.05370    1.000
    N690     N        0.06212    0.52139    0.11081    1.000
    Si691    Si       0.07642    0.49238    0.07941    1.000
    Si692    Si       0.02491    0.52326    0.08652    1.000
    Si693    Si       0.10769    0.49814    0.00975    1.000
    N694     N        0.11168    0.48908    0.05361    1.000
    Si695    Si       0.03706    0.47982    0.01726    1.000
    N696     N        0.98815    0.50430    0.10155    1.000
    N697     N        0.19167    0.52222    0.10347    1.000
    N698     N        0.19994    0.52787    0.02245    1.000
    Si699    Si       0.20881    0.48683    0.03123    1.000
    Si700    Si       0.19557    0.47992    0.10450    1.000
    Si701    Si       0.05432    0.50328    0.15067    1.000
    N702     N        0.01844    0.52910    0.15872    1.000
    N703     N        0.08082    0.48294    0.17817    1.000
    Si704    Si       0.99072    0.49128    0.14741    1.000
    Si705    Si       0.11400    0.51120    0.18066    1.000
    N706     N        0.13344    0.51047    0.22043    1.000
    Si707    Si       0.17235    0.50415    0.19594    1.000
    N708     N        0.15189    0.51090    0.15797    1.000
    Si709    Si       0.10288    0.52240    0.30984    1.000
    Si710    Si       0.06986    0.50080    0.36650    1.000
    N711     N        0.06879    0.53335    0.33655    1.000
    N712     N        0.11081    0.48212    0.29409    1.000
    N713     N        0.02286    0.53416    0.29330    1.000
    N714     N        0.11317    0.49604    0.36772    1.000
    N715     N        0.20452    0.52118    0.31441    1.000
    Si716    Si       0.22134    0.48938    0.29207    1.000
    Si717    Si       0.20294    0.50353    0.35918    1.000
    N718     N        0.23170    0.50963    0.25326    1.000
    Si719    Si       0.11779    0.48341    0.25021    1.000
    Si720    Si       0.13445    0.53352    0.37179    1.000
    N721     N        0.04329    0.50390    0.46488    1.000
    Si722    Si       0.02499    0.49664    0.42712    1.000
    N723     N        0.05159    0.52129    0.40181    1.000
    Si724    Si       0.08732    0.51238    0.46272    1.000
    N725     N        0.18218    0.50097    0.45792    1.000
    N726     N        0.17682    0.53231    0.38051    1.000
    Si727    Si       0.15642    0.49479    0.49348    1.000
    Si728    Si       0.21121    0.53770    0.45510    1.000
    N729     N        0.05399    0.51189    0.52898    1.000
    Si730    Si       0.03465    0.50874    0.60235    1.000
    N731     N        0.99941    0.52012    0.57719    1.000
    Si732    Si       0.02177    0.50792    0.50094    1.000
    N733     N        0.06787    0.53669    0.59126    1.000
    Si734    Si       0.11222    0.51319    0.59324    1.000
    N735     N        0.17842    0.50924    0.53018    1.000
    Si736    Si       0.20867    0.48473    0.54866    1.000
    N737     N        0.21004    0.53655    0.58369    1.000
    N738     N        0.11778    0.51502    0.49643    1.000
    N739     N        0.15279    0.50828    0.61796    1.000
    N740     N        0.09538    0.48237    0.62507    1.000
    Si741    Si       0.02103    0.49471    0.68134    1.000
    N742     N        0.01920    0.51747    0.64371    1.000
    N743     N        0.02469    0.51606    0.71739    1.000
    N744     N        0.09246    0.50351    0.74137    1.000
    Si745    Si       0.12795    0.51057    0.65827    1.000
    Si746    Si       0.23098    0.49509    0.65929    1.000
    N747     N        0.20878    0.53217    0.65536    1.000
    N748     N        0.21944    0.54265    0.72306    1.000
    N749     N        0.15032    0.53764    0.68809    1.000
    N750     N        0.04843    0.50756    0.83797    1.000
    Si751    Si       0.04947    0.50554    0.75169    1.000
    Si752    Si       0.11259    0.53481    0.76283    1.000
    N753     N        0.03395    0.53533    0.78009    1.000
    Si754    Si       0.99124    0.53486    0.79434    1.000
    N755     N        0.23434    0.50627    0.84896    1.000
    N756     N        0.16401    0.51779    0.84652    1.000
    N757     N        0.15077    0.52126    0.77825    1.000
    Si758    Si       0.17322    0.48469    0.77204    1.000
    Si759    Si       0.20095    0.53480    0.85919    1.000
    N760     N        0.21762    0.48636    0.76629    1.000
    N761     N        0.07733    0.51919    0.89913    1.000
    Si762    Si       0.03918    0.50945    0.88063    1.000
    N763     N        0.06649    0.50114    0.99217    1.000
    N764     N        0.00325    0.53284    0.88204    1.000
    N765     N        0.00056    0.48168    0.99529    1.000
    N766     N        0.20788    0.53698    0.90441    1.000
    N767     N        0.13805    0.52892    0.91469    1.000
    Si768    Si       0.17693    0.52779    0.93490    1.000
    Si769    Si       0.11521    0.49611    0.89707    1.000
    N770     N        0.19057    0.48977    0.95533    1.000
    N771     N        0.02135    0.56515    0.07294    1.000
    N772     N        0.05971    0.56757    0.00808    1.000
    Si773    Si       0.10479    0.57650    0.01176    1.000
    N774     N        0.09954    0.58544    0.05478    1.000
    Si775    Si       0.05946    0.58995    0.06994    1.000
    N776     N        0.06645    0.59334    0.11209    1.000
    N777     N        0.12645    0.55614    0.10852    1.000
    N778     N        0.16145    0.57995    0.04016    1.000
    Si779    Si       0.16762    0.55232    0.00522    1.000
    Si780    Si       0.13733    0.58471    0.07683    1.000
    N781     N        0.22069    0.59019    0.00822    1.000
    Si782    Si       0.23633    0.55171    0.02683    1.000
    Si783    Si       0.22433    0.55032    0.10848    1.000
    N784     N        0.12375    0.53831    0.00102    1.000
    Si785    Si       0.08709    0.55763    0.12553    1.000
    N786     N        0.04997    0.57411    0.23366    1.000
    Si787    Si       0.08297    0.57570    0.20015    1.000
    N788     N        0.08872    0.54544    0.16804    1.000
    N789     N        0.98824    0.58143    0.20294    1.000
    N790     N        0.19347    0.54150    0.20092    1.000
    Si791    Si       0.20574    0.54100    0.24060    1.000
    N792     N        0.18843    0.57603    0.13271    1.000
    N793     N        0.12050    0.58360    0.22032    1.000
    Si794    Si       0.21003    0.56770    0.16998    1.000
    Si795    Si       0.16165    0.54012    0.12822    1.000
    Si796    Si       0.13020    0.54865    0.24425    1.000
    N797     N        0.00363    0.56646    0.35600    1.000
    Si798    Si       0.05384    0.55873    0.27238    1.000
    Si799    Si       0.03585    0.55742    0.32936    1.000
    N800     N        0.04775    0.59007    0.30054    1.000
    N801     N        0.09582    0.54203    0.27118    1.000
    Si802    Si       0.17585    0.55210    0.30716    1.000
    N803     N        0.16790    0.54688    0.26325    1.000
    N804     N        0.19446    0.59259    0.30842    1.000
    N805     N        0.13846    0.54409    0.32776    1.000
    N806     N        0.23030    0.57591    0.24925    1.000
    N807     N        0.99537    0.57014    0.43497    1.000
    Si808    Si       0.99602    0.58032    0.47814    1.000
    Si809    Si       0.00514    0.58443    0.39488    1.000
    Si810    Si       0.07285    0.56109    0.41056    1.000
    N811     N        0.08400    0.55512    0.45136    1.000
    Si812    Si       0.09377    0.58429    0.48197    1.000
    N813     N        0.04780    0.59347    0.39857    1.000
    N814     N        0.11224    0.56617    0.39252    1.000
    N815     N        0.18998    0.57073    0.43626    1.000
    N816     N        0.23313    0.57930    0.38538    1.000
    N817     N        0.23311    0.55737    0.48829    1.000
    Si818    Si       0.19156    0.57023    0.39384    1.000
    N819     N        0.13768    0.57987    0.49343    1.000
    N820     N        0.08166    0.57154    0.52068    1.000
    N821     N        0.02450    0.58162    0.55895    1.000
    Si822    Si       0.05708    0.55209    0.55172    1.000
    N823     N        0.10193    0.58829    0.61551    1.000
    N824     N        0.99435    0.54063    0.49480    1.000
    Si825    Si       0.12362    0.54997    0.52198    1.000
    N826     N        0.13171    0.54500    0.56421    1.000
    Si827    Si       0.21499    0.58858    0.50987    1.000
    Si828    Si       0.13303    0.58538    0.58526    1.000
    N829     N        0.18486    0.58093    0.53864    1.000
    N830     N        0.16839    0.57706    0.60842    1.000
    Si831    Si       0.17737    0.54217    0.55801    1.000
    N832     N        0.10514    0.56802    0.73654    1.000
    Si833    Si       0.99947    0.55268    0.72541    1.000
    Si834    Si       0.00049    0.55964    0.64719    1.000
    N835     N        0.03751    0.58212    0.64484    1.000
    Si836    Si       0.07173    0.56087    0.62946    1.000
    N837     N        0.09333    0.53902    0.66331    1.000
    Si838    Si       0.11390    0.56050    0.69434    1.000
    Si839    Si       0.18565    0.53909    0.62119    1.000
    N840     N        0.19341    0.59589    0.70406    1.000
    Si841    Si       0.19133    0.55139    0.69130    1.000
    Si842    Si       0.22335    0.58533    0.73447    1.000
    N843     N        0.03137    0.57519    0.83365    1.000
    Si844    Si       0.05770    0.54265    0.81659    1.000
    N845     N        0.99621    0.58898    0.74757    1.000
    Si846    Si       0.00776    0.57319    0.87167    1.000
    N847     N        0.09825    0.54101    0.80492    1.000
    N848     N        0.21212    0.56675    0.83443    1.000
    N849     N        0.14831    0.58175    0.82387    1.000
    N850     N        0.21356    0.58732    0.77619    1.000
    Si851    Si       0.14005    0.54109    0.81719    1.000
    N852     N        0.03284    0.59163    0.90282    1.000
    Si853    Si       0.06264    0.54019    0.97436    1.000
    N854     N        0.08616    0.56840    0.94916    1.000
    N855     N        0.10112    0.58402    0.87834    1.000
    Si856    Si       0.01390    0.58513    0.94152    1.000
    Si857    Si       0.10155    0.55504    0.91042    1.000
    N858     N        0.02225    0.54321    0.95815    1.000
    Si859    Si       0.21477    0.58792    0.96620    1.000
    N860     N        0.18079    0.56127    0.96418    1.000
    N861     N        0.04074    0.62169    0.04608    1.000
    Si862    Si       0.02946    0.59922    0.01006    1.000
    N863     N        0.15110    0.61933    0.09919    1.000
    N864     N        0.21270    0.61663    0.07276    1.000
    Si865    Si       0.19209    0.61109    0.03518    1.000
    N866     N        0.17392    0.64551    0.01502    1.000
    Si867    Si       0.19275    0.61574    0.11109    1.000
    Si868    Si       0.13079    0.64974    0.99638    1.000
    Si869    Si       0.04620    0.61667    0.14145    1.000
    N870     N        0.00346    0.62792    0.14169    1.000
    N871     N        0.03973    0.64829    0.21711    1.000
    Si872    Si       0.02642    0.60288    0.21013    1.000
    N873     N        0.11043    0.65184    0.20760    1.000
    N874     N        0.05627    0.59860    0.17654    1.000
    N875     N        0.23050    0.60275    0.18248    1.000
    N876     N        0.16539    0.63515    0.18793    1.000
    N877     N        0.20519    0.65167    0.13440    1.000
    Si878    Si       0.14356    0.62214    0.22233    1.000
    Si879    Si       0.20642    0.64180    0.17658    1.000
    Si880    Si       0.04666    0.63372    0.30918    1.000
    N881     N        0.03357    0.63744    0.35018    1.000
    N882     N        0.08575    0.64645    0.30389    1.000
    N883     N        0.02011    0.65266    0.28106    1.000
    Si884    Si       0.99158    0.63805    0.35395    1.000
    Si885    Si       0.18249    0.61893    0.33903    1.000
    N886     N        0.22044    0.64072    0.34746    1.000
    N887     N        0.15179    0.64397    0.32367    1.000
    N888     N        0.17238    0.62818    0.25489    1.000
    Si889    Si       0.21022    0.60815    0.27067    1.000
    Si890    Si       0.11194    0.65315    0.33846    1.000
    N891     N        0.10126    0.63397    0.37532    1.000
    Si892    Si       0.05981    0.63309    0.38601    1.000
    N893     N        0.08390    0.62352    0.46718    1.000
    N894     N        0.01846    0.61483    0.49151    1.000
    Si895    Si       0.05352    0.64081    0.49396    1.000
    N896     N        0.21376    0.63519    0.41967    1.000
    Si897    Si       0.12922    0.60542    0.39592    1.000
    N898     N        0.19189    0.62008    0.48870    1.000
    N899     N        0.14244    0.62267    0.43450    1.000
    Si900    Si       0.18389    0.61258    0.44585    1.000
    Si901    Si       0.11908    0.64704    0.46108    1.000
    N902     N        0.16683    0.60007    0.37528    1.000
    Si903    Si       0.02804    0.62497    0.55939    1.000
    N904     N        0.03216    0.63429    0.59975    1.000
    N905     N        0.06153    0.63873    0.53569    1.000
    Si906    Si       0.10450    0.64526    0.54135    1.000
    N907     N        0.99095    0.64729    0.54527    1.000
    N908     N        0.21232    0.64347    0.58773    1.000
    N909     N        0.13217    0.61453    0.55511    1.000
    Si910    Si       0.15737    0.61040    0.51759    1.000
    Si911    Si       0.18978    0.61686    0.61277    1.000
    N912     N        0.13015    0.64909    0.50450    1.000
    Si913    Si       0.22136    0.65211    0.49874    1.000
    N914     N        0.08224    0.64293    0.64591    1.000
    Si915    Si       0.04385    0.62535    0.63966    1.000
    N916     N        0.06231    0.62646    0.72705    1.000
    N917     N        0.01768    0.64124    0.67028    1.000
    Si918    Si       0.11779    0.61746    0.64195    1.000
    N919     N        0.22158    0.60538    0.64108    1.000
    N920     N        0.15046    0.63685    0.62061    1.000
    N921     N        0.12612    0.59938    0.67961    1.000
    Si922    Si       0.15319    0.61816    0.70817    1.000
    Si923    Si       0.21130    0.62982    0.67708    1.000
    N924     N        0.17252    0.65174    0.68779    1.000
    N925     N        0.06383    0.63767    0.85364    1.000
    Si926    Si       0.04453    0.61433    0.82021    1.000
    N927     N        0.01376    0.64034    0.80226    1.000
    Si928    Si       0.99714    0.62964    0.76353    1.000
    N929     N        0.07662    0.61658    0.79297    1.000
    Si930    Si       0.09204    0.60957    0.75080    1.000
    N931     N        0.19439    0.63444    0.83053    1.000
    Si932    Si       0.13631    0.60653    0.85888    1.000
    N933     N        0.13147    0.64544    0.83498    1.000
    Si934    Si       0.23457    0.63626    0.84426    1.000
    Si935    Si       0.18717    0.59614    0.81015    1.000
    N936     N        0.13139    0.62957    0.74297    1.000
    Si937    Si       0.07776    0.60933    0.95955    1.000
    N938     N        0.08996    0.63162    0.92321    1.000
    Si939    Si       0.06862    0.61179    0.89012    1.000
    N940     N        0.03708    0.61158    0.96887    1.000
    N941     N        0.10798    0.61289    0.99118    1.000
    N942     N        0.14763    0.65779    0.95761    1.000
    Si943    Si       0.19730    0.63290    0.90434    1.000
    N944     N        0.23330    0.61890    0.88572    1.000
    Si945    Si       0.12982    0.64725    0.91828    1.000
    Si946    Si       0.18845    0.65684    0.97407    1.000
    N947     N        0.15638    0.62046    0.89476    1.000
    N948     N        0.20977    0.62769    0.94621    1.000
    N949     N        0.05568    0.68738    0.03229    1.000
    Si950    Si       0.09518    0.69524    0.04863    1.000
    N951     N        0.09974    0.67038    0.08449    1.000
    N952     N        0.03716    0.67217    0.09847    1.000
    Si953    Si       0.03080    0.66218    0.05558    1.000
    Si954    Si       0.07626    0.68319    0.11855    1.000
    Si955    Si       0.20205    0.69213    0.11629    1.000
    N956     N        0.12719    0.68412    0.02355    1.000
    Si957    Si       0.16805    0.68214    0.04140    1.000
    N958     N        0.17147    0.68354    0.08612    1.000
    Si959    Si       0.13928    0.65936    0.10477    1.000
    N960     N        0.99531    0.69871    0.23442    1.000
    Si961    Si       0.01249    0.67071    0.13514    1.000
    N962     N        0.01069    0.70088    0.16600    1.000
    Si963    Si       0.07159    0.66711    0.19297    1.000
    N964     N        0.06742    0.71064    0.19973    1.000
    N965     N        0.06141    0.65597    0.15241    1.000
    Si966    Si       0.20011    0.71266    0.19059    1.000
    Si967    Si       0.14146    0.67219    0.18415    1.000
    N968     N        0.16106    0.70463    0.20778    1.000
    N969     N        0.12772    0.67503    0.14335    1.000
    N970     N        0.22512    0.67711    0.19363    1.000
    Si971    Si       0.09507    0.68620    0.28913    1.000
    N972     N        0.06497    0.70069    0.26236    1.000
    N973     N        0.10397    0.69764    0.33142    1.000
    Si974    Si       0.03154    0.67672    0.24882    1.000
    N975     N        0.13279    0.68948    0.26859    1.000
    N976     N        0.20290    0.67947    0.29245    1.000
    Si977    Si       0.16482    0.65955    0.28419    1.000
    Si978    Si       0.23761    0.65926    0.31128    1.000
    N979     N        0.98941    0.70803    0.42402    1.000
    N980     N        0.04699    0.66882    0.41046    1.000
    Si981    Si       0.06616    0.69129    0.44334    1.000
    N982     N        0.05373    0.68313    0.48365    1.000
    Si983    Si       0.01367    0.69358    0.39089    1.000
    N984     N        0.11027    0.68671    0.44477    1.000
    N985     N        0.20126    0.68519    0.46964    1.000
    Si986    Si       0.21201    0.67910    0.42950    1.000
    N987     N        0.17960    0.69949    0.40646    1.000
    N988     N        0.10350    0.67530    0.57185    1.000
    N989     N        0.05767    0.70531    0.61515    1.000
    Si990    Si       0.07573    0.70901    0.57371    1.000
    N991     N        0.16498    0.69437    0.58271    1.000
    Si992    Si       0.20563    0.68368    0.57410    1.000
    N993     N        0.20989    0.67961    0.53150    1.000
    Si994    Si       0.13428    0.67387    0.60471    1.000
    Si995    Si       0.19500    0.70924    0.50396    1.000
    N996     N        0.23153    0.71586    0.58673    1.000
    Si997    Si       0.07792    0.68531    0.64906    1.000
    N998     N        0.00255    0.66392    0.73483    1.000
    N999     N        0.06092    0.69043    0.68943    1.000
    Si1000   Si       0.09156    0.71456    0.71444    1.000
    Si1001   Si       0.03696    0.65543    0.70601    1.000
    N1002    N        0.19914    0.69995    0.72332    1.000
    N1003    N        0.11904    0.69739    0.63869    1.000
    Si1004   Si       0.16420    0.69387    0.69751    1.000
    N1005    N        0.12784    0.69321    0.72197    1.000
    Si1006   Si       0.23816    0.68972    0.71017    1.000
    N1007    N        0.09353    0.68294    0.78016    1.000
    N1008    N        0.00884    0.67754    0.86109    1.000
    Si1009   Si       0.00141    0.67886    0.81745    1.000
    N1010    N        0.08274    0.69717    0.84002    1.000
    N1011    N        0.02722    0.71163    0.80343    1.000
    Si1012   Si       0.05235    0.67857    0.86780    1.000
    Si1013   Si       0.09205    0.65740    0.81827    1.000
    Si1014   Si       0.16661    0.66716    0.82380    1.000
    N1015    N        0.16380    0.68036    0.78282    1.000
    N1016    N        0.18428    0.69832    0.84784    1.000
    Si1017   Si       0.13018    0.67032    0.75832    1.000
    Si1018   Si       0.22421    0.71089    0.83365    1.000
    Si1019   Si       0.18896    0.71054    0.76408    1.000
    Si1020   Si       0.99202    0.68399    0.95215    1.000
    N1021    N        0.03216    0.69226    0.96647    1.000
    N1022    N        0.06358    0.69849    0.90293    1.000
    N1023    N        0.13426    0.68462    0.89516    1.000
    Si1024   Si       0.23182    0.68975    0.93131    1.000
    N1025    N        0.20947    0.69233    0.96926    1.000
    Si1026   Si       0.17209    0.70206    0.88791    1.000
    N1027    N        0.19949    0.67493    0.90368    1.000
    Si1028   Si       0.08083    0.75483    0.10367    1.000
    N1029    N        0.09173    0.73678    0.06620    1.000
    N1030    N        0.00276    0.73115    0.01259    1.000
    Si1031   Si       0.09330    0.76711    0.03402    1.000
    N1032    N        0.07606    0.74239    0.00333    1.000
    Si1033   Si       0.04261    0.71557    0.00254    1.000
    N1034    N        0.22899    0.72292    0.09320    1.000
    Si1035   Si       0.20384    0.74433    0.06258    1.000
    N1036    N        0.17667    0.75848    0.09081    1.000
    N1037    N        0.19489    0.71348    0.03393    1.000
    N1038    N        0.07081    0.72303    0.13164    1.000
    Si1039   Si       0.07539    0.73536    0.23578    1.000
    Si1040   Si       0.04499    0.73008    0.16623    1.000
    N1041    N        0.04638    0.76608    0.23916    1.000
    N1042    N        0.03289    0.77007    0.16885    1.000
    N1043    N        0.11401    0.75446    0.23792    1.000
    N1044    N        0.22419    0.74436    0.21228    1.000
    Si1045   Si       0.19028    0.76124    0.13207    1.000
    N1046    N        0.19359    0.72048    0.15041    1.000
    Si1047   Si       0.20076    0.76954    0.23948    1.000
    Si1048   Si       0.14611    0.72353    0.24564    1.000
    Si1049   Si       0.03758    0.75471    0.34025    1.000
    N1050    N        0.99633    0.74829    0.28638    1.000
    N1051    N        0.06029    0.76254    0.30425    1.000
    N1052    N        0.18003    0.74065    0.26488    1.000
    Si1053   Si       0.13153    0.72718    0.34816    1.000
    N1054    N        0.23128    0.74950    0.30935    1.000
    Si1055   Si       0.19778    0.72283    0.30060    1.000
    N1056    N        0.12866    0.76619    0.32900    1.000
    N1057    N        0.17139    0.71492    0.33642    1.000
    N1058    N        0.03881    0.72133    0.36778    1.000
    Si1059   Si       0.07213    0.73895    0.39135    1.000
    N1060    N        0.05403    0.73589    0.43415    1.000
    Si1061   Si       0.00931    0.74143    0.44677    1.000
    N1062    N        0.00960    0.73119    0.48898    1.000
    Si1063   Si       0.07029    0.76958    0.45934    1.000
    N1064    N        0.08285    0.74697    0.49262    1.000
    N1065    N        0.11616    0.72771    0.38924    1.000
    N1066    N        0.14151    0.75035    0.45010    1.000
    N1067    N        0.18898    0.76299    0.37623    1.000
    Si1068   Si       0.13822    0.71444    0.42327    1.000
    Si1069   Si       0.12728    0.74768    0.49065    1.000
    Si1070   Si       0.19745    0.72076    0.37276    1.000
    N1071    N        0.01060    0.75803    0.59373    1.000
    N1072    N        0.10605    0.73778    0.56257    1.000
    Si1073   Si       0.00655    0.74736    0.55068    1.000
    Si1074   Si       0.01616    0.72290    0.61828    1.000
    N1075    N        0.04196    0.72032    0.54701    1.000
    Si1076   Si       0.04813    0.72030    0.50377    1.000
    Si1077   Si       0.21228    0.75554    0.59068    1.000
    N1078    N        0.17324    0.76056    0.57101    1.000
    N1079    N        0.21422    0.74741    0.51432    1.000
    N1080    N        0.15670    0.72766    0.51645    1.000
    Si1081   Si       0.14570    0.72143    0.55800    1.000
    Si1082   Si       0.17578    0.77007    0.52766    1.000
    Si1083   Si       0.04844    0.74186    0.68235    1.000
    N1084    N        0.01431    0.73196    0.65942    1.000
    N1085    N        0.09218    0.74450    0.68073    1.000
    N1086    N        0.06333    0.73128    0.74349    1.000
    Si1087   Si       0.19785    0.74543    0.70915    1.000
    N1088    N        0.14003    0.76841    0.63211    1.000
    Si1089   Si       0.12583    0.73709    0.65572    1.000
    N1090    N        0.16283    0.73469    0.68253    1.000
    N1091    N        0.20999    0.76324    0.63418    1.000
    N1092    N        0.08164    0.75287    0.80279    1.000
    N1093    N        0.04134    0.75760    0.85447    1.000
    Si1094   Si       0.08095    0.74032    0.84534    1.000
    Si1095   Si       0.01543    0.75227    0.81949    1.000
    N1096    N        0.01721    0.76922    0.77859    1.000
    Si1097   Si       0.06623    0.71694    0.78354    1.000
    Si1098   Si       0.04940    0.77208    0.74613    1.000
    N1099    N        0.23067    0.75017    0.85333    1.000
    N1100    N        0.18471    0.75250    0.75148    1.000
    N1101    N        0.22346    0.71377    0.78986    1.000
    N1102    N        0.11189    0.74992    0.87510    1.000
    Si1103   Si       0.03812    0.71901    0.93028    1.000
    N1104    N        0.05545    0.75693    0.93794    1.000
    Si1105   Si       0.09138    0.75312    0.96436    1.000
    Si1106   Si       0.10474    0.71428    0.90256    1.000
    N1107    N        0.99489    0.71591    0.91948    1.000
    Si1108   Si       0.15786    0.75177    0.94008    1.000
    N1109    N        0.11910    0.73016    0.94104    1.000
    Si1110   Si       0.21973    0.75215    0.89589    1.000
    N1111    N        0.17608    0.74231    0.90054    1.000
    Si1112   Si       0.20362    0.72659    0.99403    1.000
    N1113    N        0.17549    0.75572    0.98005    1.000
    N1114    N        0.01714    0.79478    0.02523    1.000
    N1115    N        0.08025    0.80720    0.04722    1.000
    Si1116   Si       0.03883    0.80208    0.06166    1.000
    N1117    N        0.04645    0.77713    0.09563    1.000
    N1118    N        0.11352    0.78149    0.11156    1.000
    Si1119   Si       0.24059    0.78478    0.00846    1.000
    Si1120   Si       0.14302    0.78501    0.07675    1.000
    Si1121   Si       0.16950    0.78707    0.01007    1.000
    N1122    N        0.20667    0.78045    0.03558    1.000
    N1123    N        0.15235    0.82663    0.07585    1.000
    N1124    N        0.13775    0.77294    0.03592    1.000
    N1125    N        0.99554    0.81235    0.12551    1.000
    Si1126   Si       0.03365    0.79461    0.13177    1.000
    Si1127   Si       0.02427    0.78709    0.20846    1.000
    N1128    N        0.10697    0.80561    0.18752    1.000
    N1129    N        0.06366    0.82543    0.13943    1.000
    N1130    N        0.03901    0.82679    0.20609    1.000
    Si1131   Si       0.12452    0.80651    0.14537    1.000
    N1132    N        0.23042    0.77560    0.13872    1.000
    Si1133   Si       0.12599    0.79554    0.22499    1.000
    Si1134   Si       0.18247    0.81586    0.18662    1.000
    N1135    N        0.16767    0.79429    0.15247    1.000
    N1136    N        0.22451    0.82059    0.19534    1.000
    N1137    N        0.17016    0.79315    0.22125    1.000
    Si1138   Si       0.22937    0.82827    0.23844    1.000
    Si1139   Si       0.09073    0.78509    0.32501    1.000
    N1140    N        0.01138    0.81675    0.28134    1.000
    Si1141   Si       0.00704    0.81645    0.36454    1.000
    N1142    N        0.00194    0.77777    0.34385    1.000
    N1143    N        0.07117    0.77589    0.36366    1.000
    N1144    N        0.09068    0.82630    0.31683    1.000
    Si1145   Si       0.02859    0.77610    0.27709    1.000
    Si1146   Si       0.22727    0.79451    0.30764    1.000
    N1147    N        0.22191    0.79701    0.26578    1.000
    N1148    N        0.19407    0.81546    0.32914    1.000
    N1149    N        0.02985    0.81209    0.40050    1.000
    Si1150   Si       0.07290    0.80849    0.39389    1.000
    N1151    N        0.04362    0.80034    0.46947    1.000
    Si1152   Si       0.01319    0.81230    0.44150    1.000
    N1153    N        0.09281    0.78584    0.42585    1.000
    N1154    N        0.98726    0.77771    0.44024    1.000
    Si1155   Si       0.13619    0.78911    0.43028    1.000
    N1156    N        0.23007    0.82017    0.39109    1.000
    Si1157   Si       0.19051    0.80495    0.37134    1.000
    N1158    N        0.14430    0.82254    0.46194    1.000
    N1159    N        0.16292    0.81501    0.40267    1.000
    N1160    N        0.21099    0.81752    0.45388    1.000
    Si1161   Si       0.22214    0.82206    0.49496    1.000
    N1162    N        0.06003    0.80020    0.53741    1.000
    N1163    N        0.10410    0.80081    0.57931    1.000
    Si1164   Si       0.06776    0.82491    0.57542    1.000
    Si1165   Si       0.99765    0.79827    0.58609    1.000
    Si1166   Si       0.04913    0.82576    0.50574    1.000
    N1167    N        0.03066    0.82200    0.59884    1.000
    Si1168   Si       0.09413    0.77418    0.54406    1.000
    N1169    N        0.98836    0.78820    0.54321    1.000
    N1170    N        0.13075    0.78508    0.51663    1.000
    N1171    N        0.19430    0.81008    0.52402    1.000
    Si1172   Si       0.14254    0.78487    0.59231    1.000
    N1173    N        0.16502    0.82388    0.59194    1.000
    Si1174   Si       0.12740    0.82909    0.50193    1.000
    N1175    N        0.03442    0.77690    0.70558    1.000
    Si1176   Si       0.00023    0.80174    0.69432    1.000
    N1177    N        0.16419    0.82314    0.66081    1.000
    N1178    N        0.16452    0.82340    0.73461    1.000
    N1179    N        0.20509    0.78397    0.69211    1.000
    Si1180   Si       0.18692    0.82337    0.69859    1.000
    Si1181   Si       0.17570    0.77749    0.65782    1.000
    Si1182   Si       0.09741    0.79113    0.79220    1.000
    N1183    N        0.01672    0.81586    0.83667    1.000
    N1184    N        0.08482    0.82313    0.82049    1.000
    N1185    N        0.07888    0.80145    0.75366    1.000
    Si1186   Si       0.17291    0.79159    0.76348    1.000
    N1187    N        0.16659    0.80429    0.86076    1.000
    N1188    N        0.14036    0.78772    0.79263    1.000
    Si1189   Si       0.15924    0.81475    0.81956    1.000
    N1190    N        0.19380    0.81989    0.79315    1.000
    N1191    N        0.23032    0.82469    0.84779    1.000
    Si1192   Si       0.03370    0.79691    0.87244    1.000
    N1193    N        0.06598    0.81622    0.89656    1.000
    Si1194   Si       0.06161    0.80018    0.93895    1.000
    N1195    N        0.09428    0.79512    0.96875    1.000
    N1196    N        0.00138    0.78960    0.90042    1.000
    N1197    N        0.03210    0.82303    0.95814    1.000
    N1198    N        0.22007    0.79306    0.90724    1.000
    Si1199   Si       0.20159    0.82065    0.87996    1.000
    N1200    N        0.15368    0.82005    0.98712    1.000
    Si1201   Si       0.12826    0.81914    0.95414    1.000
    N1202    N        0.14500    0.79078    0.92364    1.000
    N1203    N        0.22734    0.80683    0.97636    1.000
    Si1204   Si       0.14651    0.77353    0.88483    1.000
    N1205    N        0.09231    0.86780    0.08115    1.000
    N1206    N        0.05135    0.85846    0.01719    1.000
    Si1207   Si       0.08723    0.85001    0.03964    1.000
    Si1208   Si       0.99833    0.85263    0.11030    1.000
    Si1209   Si       0.06125    0.85650    0.10739    1.000
    N1210    N        0.03029    0.83966    0.08137    1.000
    Si1211   Si       0.02448    0.82941    0.99891    1.000
    N1212    N        0.11923    0.87238    0.01748    1.000
    Si1213   Si       0.13182    0.86069    0.09513    1.000
    N1214    N        0.19251    0.86052    0.02756    1.000
    Si1215   Si       0.18885    0.85339    0.07076    1.000
    Si1216   Si       0.15955    0.86249    0.99973    1.000
    N1217    N        0.16614    0.88558    0.08702    1.000
    N1218    N        0.21898    0.83442    0.09080    1.000
    Si1219   Si       0.22585    0.88669    0.02514    1.000
    N1220    N        0.02981    0.87800    0.12815    1.000
    N1221    N        0.08880    0.87704    0.18384    1.000
    Si1222   Si       0.01816    0.85803    0.22663    1.000
    Si1223   Si       0.07489    0.83523    0.18031    1.000
    Si1224   Si       0.15711    0.86255    0.23747    1.000
    Si1225   Si       0.13053    0.87568    0.16941    1.000
    N1226    N        0.15940    0.85455    0.19422    1.000
    N1227    N        0.12792    0.84863    0.13576    1.000
    Si1228   Si       0.01397    0.85951    0.29482    1.000
    Si1229   Si       0.07210    0.85262    0.34448    1.000
    N1230    N        0.02905    0.85037    0.33726    1.000
    N1231    N        0.03560    0.87484    0.26172    1.000
    Si1232   Si       0.99176    0.87522    0.35306    1.000
    Si1233   Si       0.11461    0.85021    0.28989    1.000
    N1234    N        0.18479    0.88188    0.36593    1.000
    Si1235   Si       0.18553    0.85914    0.32808    1.000
    N1236    N        0.15224    0.86899    0.30386    1.000
    N1237    N        0.22330    0.87926    0.31461    1.000
    Si1238   Si       0.22554    0.88331    0.27131    1.000
    N1239    N        0.19765    0.85953    0.25011    1.000
    N1240    N        0.12597    0.83253    0.25053    1.000
    Si1241   Si       0.01414    0.88832    0.42135    1.000
    N1242    N        0.09209    0.84464    0.38441    1.000
    N1243    N        0.99551    0.85141    0.44089    1.000
    Si1244   Si       0.01078    0.88864    0.49245    1.000
    Si1245   Si       0.17641    0.83866    0.43638    1.000
    N1246    N        0.18648    0.87960    0.43492    1.000
    N1247    N        0.22769    0.86406    0.49522    1.000
    N1248    N        0.08104    0.86528    0.56691    1.000
    N1249    N        0.01380    0.84829    0.50801    1.000
    Si1250   Si       0.09257    0.88439    0.60394    1.000
    N1251    N        0.08715    0.85115    0.50143    1.000
    Si1252   Si       0.07862    0.88601    0.52832    1.000
    N1253    N        0.21419    0.86612    0.56469    1.000
    N1254    N        0.14976    0.85576    0.52920    1.000
    Si1255   Si       0.18084    0.83841    0.55281    1.000
    Si1256   Si       0.02121    0.85282    0.62894    1.000
    Si1257   Si       0.01448    0.86772    0.69961    1.000
    N1258    N        0.05641    0.86560    0.71087    1.000
    N1259    N        0.05737    0.87826    0.63156    1.000
    N1260    N        0.99542    0.87558    0.73683    1.000
    N1261    N        0.00795    0.83728    0.66841    1.000
    N1262    N        0.10917    0.86558    0.74093    1.000
    N1263    N        0.12529    0.87504    0.62886    1.000
    N1264    N        0.21566    0.85460    0.69530    1.000
    Si1265   Si       0.15906    0.84764    0.62666    1.000
    N1266    N        0.19103    0.87656    0.62677    1.000
    Si1267   Si       0.20266    0.88405    0.66739    1.000
    N1268    N        0.04718    0.86017    0.77503    1.000
    N1269    N        0.05667    0.87502    0.84295    1.000
    Si1270   Si       0.10243    0.86620    0.83068    1.000
    Si1271   Si       0.04541    0.84136    0.81620    1.000
    N1272    N        0.99034    0.86372    0.87020    1.000
    Si1273   Si       0.02791    0.88723    0.87380    1.000
    Si1274   Si       0.07402    0.84358    0.74583    1.000
    N1275    N        0.13809    0.85222    0.80358    1.000
    Si1276   Si       0.14675    0.85449    0.76185    1.000
    Si1277   Si       0.23098    0.83630    0.80607    1.000
    N1278    N        0.23750    0.87951    0.80469    1.000
    Si1279   Si       0.08689    0.85466    0.90010    1.000
    N1280    N        0.05513    0.88472    0.90819    1.000
    N1281    N        0.11263    0.85501    0.93539    1.000
    N1282    N        0.12015    0.86279    0.87099    1.000
    Si1283   Si       0.23031    0.87821    0.91028    1.000
    N1284    N        0.19318    0.85899    0.89708    1.000
    Si1285   Si       0.15960    0.88137    0.88064    1.000
    N1286    N        0.06429    0.92340    0.02003    1.000
    N1287    N        0.02756    0.93551    0.09069    1.000
    Si1288   Si       0.03159    0.89776    0.01134    1.000
    Si1289   Si       0.10249    0.91016    0.00576    1.000
    N1290    N        0.99514    0.90866    0.03193    1.000
    Si1291   Si       0.99150    0.91916    0.07283    1.000
    Si1292   Si       0.19309    0.92042    0.08447    1.000
    N1293    N        0.22689    0.89929    0.06865    1.000
    N1294    N        0.21701    0.92256    0.00410    1.000
    N1295    N        0.12186    0.94452    0.02841    1.000
    N1296    N        0.06085    0.93757    0.15417    1.000
    N1297    N        0.06901    0.93201    0.22643    1.000
    Si1298   Si       0.06113    0.90961    0.19005    1.000
    Si1299   Si       0.02821    0.92007    0.12951    1.000
    N1300    N        0.02024    0.89334    0.19859    1.000
    Si1301   Si       0.15048    0.93406    0.21117    1.000
    N1302    N        0.14254    0.91888    0.16914    1.000
    N1303    N        0.14582    0.90399    0.24405    1.000
    N1304    N        0.20041    0.93416    0.12528    1.000
    Si1305   Si       0.15880    0.94534    0.13750    1.000
    Si1306   Si       0.23430    0.93670    0.22083    1.000
    Si1307   Si       0.23733    0.94128    0.14764    1.000
    N1308    N        0.19292    0.94338    0.20773    1.000
    Si1309   Si       0.08466    0.92599    0.32303    1.000
    Si1310   Si       0.06032    0.90920    0.26355    1.000
    N1311    N        0.05052    0.93842    0.29616    1.000
    N1312    N        0.08059    0.89371    0.35066    1.000
    N1313    N        0.09482    0.89264    0.28517    1.000
    Si1314   Si       0.13550    0.90582    0.28609    1.000
    Si1315   Si       0.22274    0.90557    0.35359    1.000
    N1316    N        0.21204    0.94148    0.32880    1.000
    N1317    N        0.12680    0.93998    0.31200    1.000
    N1318    N        0.23242    0.92344    0.26065    1.000
    N1319    N        0.01327    0.91540    0.45910    1.000
    N1320    N        0.09318    0.92899    0.46272    1.000
    Si1321   Si       0.05214    0.93235    0.44434    1.000
    N1322    N        0.05625    0.89780    0.41566    1.000
    N1323    N        0.99307    0.90187    0.38660    1.000
    Si1324   Si       0.09355    0.88793    0.39237    1.000
    N1325    N        0.23127    0.92673    0.45708    1.000
    N1326    N        0.12952    0.91032    0.40036    1.000
    Si1327   Si       0.17568    0.90747    0.40250    1.000
    Si1328   Si       0.20591    0.89481    0.47224    1.000
    N1329    N        0.20843    0.93601    0.38989    1.000
    Si1330   Si       0.12187    0.93992    0.43173    1.000
    N1331    N        0.16340    0.94456    0.44289    1.000
    N1332    N        0.09795    0.92885    0.59980    1.000
    N1333    N        0.04134    0.90840    0.51900    1.000
    N1334    N        0.03443    0.93764    0.58473    1.000
    Si1335   Si       0.03871    0.94495    0.54213    1.000
    Si1336   Si       0.99684    0.92052    0.60051    1.000
    N1337    N        0.11219    0.91518    0.52151    1.000
    Si1338   Si       0.15178    0.89923    0.53122    1.000
    Si1339   Si       0.13874    0.93799    0.59408    1.000
    N1340    N        0.16254    0.91136    0.57078    1.000
    N1341    N        0.23236    0.92540    0.59921    1.000
    Si1342   Si       0.19869    0.89782    0.58981    1.000
    N1343    N        0.17755    0.91333    0.49962    1.000
    N1344    N        0.24018    0.91965    0.52819    1.000
    N1345    N        0.09738    0.91187    0.67884    1.000
    N1346    N        0.01436    0.90356    0.67772    1.000
    Si1347   Si       0.09486    0.90436    0.72341    1.000
    Si1348   Si       0.05706    0.90935    0.66387    1.000
    Si1349   Si       0.13599    0.90791    0.65932    1.000
    N1350    N        0.15816    0.93931    0.63396    1.000
    Si1351   Si       0.17083    0.91475    0.72958    1.000
    N1352    N        0.20657    0.94103    0.72366    1.000
    N1353    N        0.16616    0.89904    0.68767    1.000
    N1354    N        0.13006    0.93286    0.73299    1.000
    N1355    N        0.00334    0.91540    0.79182    1.000
    N1356    N        0.01320    0.92745    0.86644    1.000
    Si1357   Si       0.01642    0.94097    0.82502    1.000
    Si1358   Si       0.02717    0.89476    0.76005    1.000
    N1359    N        0.06099    0.92300    0.74807    1.000
    N1360    N        0.05760    0.94874    0.81144    1.000
    N1361    N        0.11678    0.90865    0.82010    1.000
    Si1362   Si       0.22180    0.90116    0.84040    1.000
    Si1363   Si       0.15562    0.89231    0.80840    1.000
    N1364    N        0.17918    0.89319    0.84406    1.000
    N1365    N        0.23047    0.94338    0.83656    1.000
    N1366    N        0.17050    0.89275    0.76689    1.000
    N1367    N        0.01974    0.89461    0.96892    1.000
    N1368    N        0.09308    0.91568    0.96028    1.000
    Si1369   Si       0.05188    0.90875    0.94063    1.000
    N1370    N        0.16227    0.89265    0.96934    1.000
    Si1371   Si       0.12909    0.89477    0.94238    1.000
    N1372    N        0.22765    0.91183    0.93680    1.000
    N1373    N        0.14843    0.91475    0.90680    1.000
    Si1374   Si       0.19507    0.92214    0.96501    1.000
    Si1375   Si       0.03426    0.97855    0.08458    1.000
    N1376    N        0.07544    0.97785    0.06788    1.000
    Si1377   Si       0.08179    0.96156    0.02943    1.000
    N1378    N        0.00866    0.00076    0.05828    1.000
    Si1379   Si       0.10762    0.98458    0.09516    1.000
    Si1380   Si       0.14698    0.96407    0.05712    1.000
    Si1381   Si       0.22049    0.95997    0.02718    1.000
    N1382    N        0.21616    0.99461    0.99841    1.000
    N1383    N        0.18824    0.95438    0.05703    1.000
    N1384    N        0.13745    0.95183    0.09989    1.000
    N1385    N        0.03430    0.99312    0.12490    1.000
    N1386    N        0.06236    0.99376    0.19432    1.000
    Si1387   Si       0.08332    0.97338    0.22726    1.000
    Si1388   Si       0.06665    0.98115    0.15281    1.000
    N1389    N        0.10139    0.99917    0.13527    1.000
    N1390    N        0.12711    0.97073    0.22068    1.000
    Si1391   Si       0.19511    0.98334    0.18787    1.000
    N1392    N        0.16269    0.98357    0.15703    1.000
    N1393    N        0.23210    0.98155    0.16705    1.000
    N1394    N        0.08446    0.95850    0.35585    1.000
    Si1395   Si       0.02215    0.96759    0.31225    1.000
    N1396    N        0.01624    0.95952    0.35319    1.000
    N1397    N        0.08149    0.99883    0.26347    1.000
    Si1398   Si       0.12263    0.97393    0.34134    1.000
    Si1399   Si       0.19867    0.96885    0.36055    1.000
    N1400    N        0.22388    0.00284    0.35527    1.000
    N1401    N        0.15705    0.97719    0.36779    1.000
    Si1402   Si       0.05180    0.97578    0.37680    1.000
    Si1403   Si       0.07128    0.99656    0.43901    1.000
    N1404    N        0.03994    0.96975    0.41913    1.000
    N1405    N        0.06654    0.98155    0.47812    1.000
    Si1406   Si       0.99730    0.98798    0.42268    1.000
    N1407    N        0.10918    0.98069    0.41955    1.000
    Si1408   Si       0.14307    0.00171    0.40383    1.000
    Si1409   Si       0.17253    0.95547    0.48427    1.000
    N1410    N        0.20823    0.97907    0.48648    1.000
    Si1411   Si       0.23859    0.94842    0.41988    1.000
    N1412    N        0.01613    0.97882    0.52760    1.000
    N1413    N        0.07671    0.97186    0.53766    1.000
    N1414    N        0.07940    0.99685    0.60354    1.000
    Si1415   Si       0.10276    0.99347    0.56581    1.000
    Si1416   Si       0.05126    0.99953    0.51328    1.000
    Si1417   Si       0.06553    0.95514    0.60864    1.000
    Si1418   Si       0.09821    0.95304    0.50203    1.000
    N1419    N        0.21506    0.97385    0.55726    1.000
    N1420    N        0.13974    0.97532    0.57396    1.000
    Si1421   Si       0.17754    0.99332    0.56963    1.000
    Si1422   Si       0.22374    0.99981    0.52383    1.000
    N1423    N        0.18607    0.00271    0.61264    1.000
    N1424    N        0.13775    0.97870    0.49825    1.000
    N1425    N        0.99178    0.96733    0.68979    1.000
    Si1426   Si       0.02328    0.98205    0.66157    1.000
    N1427    N        0.11131    0.00108    0.71910    1.000
    N1428    N        0.04949    0.94998    0.64917    1.000
    N1429    N        0.22918    0.00818    0.71975    1.000
    Si1430   Si       0.13164    0.97327    0.74733    1.000
    Si1431   Si       0.19523    0.98111    0.71750    1.000
    N1432    N        0.17017    0.98644    0.68221    1.000
    N1433    N        0.22712    0.97241    0.65592    1.000
    Si1434   Si       0.18385    0.97331    0.64336    1.000
    N1435    N        0.10626    0.97159    0.78223    1.000
    Si1436   Si       0.06537    0.96101    0.76885    1.000
    N1437    N        0.99683    0.97862    0.82405    1.000
    N1438    N        0.10926    0.97996    0.84778    1.000
    N1439    N        0.04254    0.99238    0.87323    1.000
    Si1440   Si       0.10031    0.94879    0.81952    1.000
    N1441    N        0.04970    0.99478    0.74816    1.000
    Si1442   Si       0.20243    0.97394    0.85432    1.000
    N1443    N        0.17542    0.98953    0.82423    1.000
    N1444    N        0.17046    0.98547    0.75458    1.000
    Si1445   Si       0.14557    0.00400    0.85285    1.000
    Si1446   Si       0.18533    0.01120    0.78654    1.000
    Si1447   Si       0.08195    0.96047    0.95364    1.000
    N1448    N        0.07967    0.98491    0.99137    1.000
    Si1449   Si       0.02360    0.96108    0.89573    1.000
    N1450    N        0.04633    0.95024    0.93018    1.000
    N1451    N        0.11403    0.97591    0.93095    1.000
    N1452    N        0.17748    0.96103    0.95429    1.000
    Si1453   Si       0.15446    0.95791    0.91785    1.000
    Si1454   Si       0.17606    0.00027    0.97277    1.000
    N1455    N        0.16971    0.98083    0.88433    1.000
    N1456    N        0.33329    0.02465    0.03919    1.000
    Si1457   Si       0.29482    0.02732    0.08772    1.000
    N1458    N        0.26767    0.04945    0.06354    1.000
    N1459    N        0.32348    0.04959    0.11085    1.000
    Si1460   Si       0.26624    0.05642    0.02141    1.000
    N1461    N        0.26177    0.01890    0.11543    1.000
    Si1462   Si       0.36184    0.06117    0.09647    1.000
    Si1463   Si       0.40530    0.00840    0.11905    1.000
    N1464    N        0.44357    0.01608    0.09944    1.000
    Si1465   Si       0.42310    0.03627    0.06527    1.000
    N1466    N        0.38343    0.02626    0.08487    1.000
    Si1467   Si       0.46494    0.02586    0.00520    1.000
    N1468    N        0.43232    0.01221    0.03064    1.000
    N1469    N        0.28239    0.04509    0.17033    1.000
    Si1470   Si       0.26543    0.06214    0.20821    1.000
    N1471    N        0.35397    0.02372    0.21812    1.000
    N1472    N        0.24756    0.03562    0.23730    1.000
    Si1473   Si       0.26658    0.00654    0.15627    1.000
    N1474    N        0.39705    0.02643    0.15690    1.000
    N1475    N        0.48973    0.02822    0.22745    1.000
    Si1476   Si       0.39375    0.02349    0.19900    1.000
    N1477    N        0.26637    0.04605    0.32006    1.000
    Si1478   Si       0.30737    0.03677    0.31027    1.000
    N1479    N        0.33129    0.02620    0.34526    1.000
    N1480    N        0.30512    0.01229    0.27126    1.000
    Si1481   Si       0.36719    0.06663    0.28208    1.000
    N1482    N        0.36896    0.02456    0.28737    1.000
    N1483    N        0.40631    0.02261    0.34452    1.000
    N1484    N        0.47679    0.02539    0.35849    1.000
    N1485    N        0.45051    0.05735    0.26887    1.000
    Si1486   Si       0.41209    0.06535    0.34486    1.000
    Si1487   Si       0.45196    0.01767    0.25016    1.000
    Si1488   Si       0.36863    0.00754    0.33050    1.000
    N1489    N        0.35903    0.02695    0.41216    1.000
    Si1490   Si       0.32597    0.03923    0.38520    1.000
    N1491    N        0.28347    0.03098    0.39820    1.000
    N1492    N        0.28106    0.03033    0.47331    1.000
    Si1493   Si       0.24066    0.02179    0.38808    1.000
    Si1494   Si       0.25422    0.06531    0.47448    1.000
    N1495    N        0.42891    0.01993    0.40896    1.000
    Si1496   Si       0.39618    0.04903    0.41571    1.000
    Si1497   Si       0.48065    0.06155    0.48730    1.000
    Si1498   Si       0.46295    0.01029    0.43385    1.000
    N1499    N        0.48921    0.04161    0.44940    1.000
    N1500    N        0.30417    0.03670    0.54482    1.000
    Si1501   Si       0.26809    0.04410    0.56387    1.000
    Si1502   Si       0.34400    0.05543    0.54838    1.000
    N1503    N        0.25446    0.02141    0.59715    1.000
    N1504    N        0.36149    0.04339    0.51019    1.000
    Si1505   Si       0.29391    0.01170    0.50939    1.000
    N1506    N        0.36197    0.03840    0.58508    1.000
    Si1507   Si       0.31548    0.03990    0.73846    1.000
    Si1508   Si       0.30342    0.04617    0.66601    1.000
    N1509    N        0.34452    0.03115    0.65193    1.000
    N1510    N        0.34873    0.01577    0.72263    1.000
    N1511    N        0.30886    0.06826    0.70542    1.000
    Si1512   Si       0.37040    0.05505    0.62446    1.000
    N1513    N        0.41020    0.04731    0.63967    1.000
    N1514    N        0.32750    0.03992    0.84966    1.000
    Si1515   Si       0.31601    0.02669    0.80703    1.000
    N1516    N        0.26995    0.05557    0.82354    1.000
    Si1517   Si       0.25201    0.01531    0.82739    1.000
    N1518    N        0.32489    0.05927    0.77651    1.000
    Si1519   Si       0.25043    0.01824    0.75486    1.000
    N1520    N        0.24891    0.06295    0.75844    1.000
    N1521    N        0.48693    0.02217    0.82077    1.000
    N1522    N        0.42204    0.01639    0.80905    1.000
    Si1523   Si       0.38283    0.02963    0.82037    1.000
    Si1524   Si       0.44829    0.02807    0.84177    1.000
    N1525    N        0.38974    0.02415    0.86467    1.000
    Si1526   Si       0.34652    0.05401    0.95417    1.000
    Si1527   Si       0.35073    0.03211    0.88446    1.000
    N1528    N        0.34343    0.01405    0.97133    1.000
    N1529    N        0.26845    0.05903    0.89170    1.000
    N1530    N        0.30644    0.06333    0.94844    1.000
    N1531    N        0.27759    0.01989    0.00103    1.000
    N1532    N        0.23995    0.03463    0.94313    1.000
    Si1533   Si       0.41272    0.02802    0.90290    1.000
    N1534    N        0.43167    0.06319    0.92242    1.000
    N1535    N        0.45116    0.06313    0.99038    1.000
    N1536    N        0.36770    0.05650    0.91665    1.000
    N1537    N        0.44902    0.01041    0.88104    1.000
    N1538    N        0.29814    0.08549    0.01467    1.000
    N1539    N        0.35498    0.08610    0.05948    1.000
    Si1540   Si       0.33783    0.06708    0.02480    1.000
    Si1541   Si       0.41906    0.10349    0.08885    1.000
    Si1542   Si       0.44618    0.09624    0.01992    1.000
    N1543    N        0.42792    0.07786    0.05571    1.000
    N1544    N        0.39407    0.08178    0.11770    1.000
    N1545    N        0.45306    0.11940    0.11077    1.000
    Si1546   Si       0.30980    0.07013    0.14693    1.000
    N1547    N        0.28826    0.10514    0.13327    1.000
    N1548    N        0.34560    0.07562    0.17156    1.000
    Si1549   Si       0.24581    0.10362    0.14770    1.000
    N1550    N        0.30265    0.07664    0.22451    1.000
    N1551    N        0.24399    0.09474    0.19196    1.000
    Si1552   Si       0.34431    0.06538    0.21340    1.000
    Si1553   Si       0.48133    0.07062    0.23985    1.000
    N1554    N        0.40716    0.11494    0.16983    1.000
    Si1555   Si       0.38787    0.07356    0.15919    1.000
    N1556    N        0.46563    0.09747    0.20920    1.000
    Si1557   Si       0.42284    0.10236    0.20876    1.000
    N1558    N        0.40041    0.06616    0.20491    1.000
    Si1559   Si       0.31158    0.09718    0.26253    1.000
    N1560    N        0.26927    0.10619    0.36039    1.000
    Si1561   Si       0.26111    0.08954    0.32035    1.000
    N1562    N        0.27735    0.11256    0.28767    1.000
    N1563    N        0.32544    0.07355    0.29610    1.000
    N1564    N        0.35929    0.09146    0.24751    1.000
    Si1565   Si       0.37703    0.12402    0.32714    1.000
    N1566    N        0.39422    0.08555    0.30999    1.000
    Si1567   Si       0.43723    0.08789    0.29557    1.000
    N1568    N        0.45231    0.07889    0.33738    1.000
    N1569    N        0.45955    0.12367    0.28673    1.000
    Si1570   Si       0.27169    0.07590    0.39388    1.000
    Si1571   Si       0.34215    0.10836    0.41824    1.000
    N1572    N        0.26876    0.08850    0.43671    1.000
    Si1573   Si       0.29191    0.11539    0.46206    1.000
    N1574    N        0.33171    0.09844    0.45966    1.000
    N1575    N        0.32175    0.08280    0.39135    1.000
    Si1576   Si       0.41166    0.11823    0.39012    1.000
    N1577    N        0.39682    0.07367    0.45056    1.000
    N1578    N        0.44963    0.12250    0.41016    1.000
    N1579    N        0.40007    0.07664    0.38303    1.000
    Si1580   Si       0.41592    0.10971    0.46658    1.000
    N1581    N        0.45393    0.09787    0.48307    1.000
    Si1582   Si       0.36633    0.07626    0.48201    1.000
    Si1583   Si       0.48574    0.12478    0.49864    1.000
    N1584    N        0.33758    0.09792    0.54354    1.000
    N1585    N        0.27424    0.08550    0.57438    1.000
    Si1586   Si       0.29489    0.10529    0.54021    1.000
    Si1587   Si       0.26954    0.10258    0.61399    1.000
    N1588    N        0.27463    0.09548    0.50012    1.000
    Si1589   Si       0.39196    0.12351    0.60805    1.000
    N1590    N        0.38817    0.11303    0.49968    1.000
    N1591    N        0.40516    0.12419    0.56700    1.000
    N1592    N        0.35960    0.09871    0.62483    1.000
    N1593    N        0.28392    0.08224    0.64930    1.000
    N1594    N        0.25872    0.11835    0.70764    1.000
    Si1595   Si       0.29424    0.10463    0.68679    1.000
    Si1596   Si       0.43498    0.08017    0.65686    1.000
    N1597    N        0.47548    0.06684    0.64537    1.000
    N1598    N        0.42645    0.09161    0.69673    1.000
    Si1599   Si       0.41972    0.10987    0.73641    1.000
    N1600    N        0.42661    0.11327    0.63066    1.000
    Si1601   Si       0.48587    0.07556    0.73892    1.000
    N1602    N        0.30639    0.10701    0.85997    1.000
    Si1603   Si       0.35598    0.08798    0.78316    1.000
    Si1604   Si       0.24276    0.08057    0.79831    1.000
    Si1605   Si       0.29233    0.06717    0.85676    1.000
    Si1606   Si       0.47823    0.09467    0.85762    1.000
    Si1607   Si       0.40883    0.09735    0.84003    1.000
    N1608    N        0.45130    0.09021    0.76015    1.000
    N1609    N        0.38234    0.07262    0.81352    1.000
    Si1610   Si       0.46291    0.11974    0.79052    1.000
    N1611    N        0.44338    0.07179    0.84999    1.000
    N1612    N        0.37807    0.10976    0.75190    1.000
    N1613    N        0.24104    0.12368    0.87821    1.000
    N1614    N        0.25575    0.10173    0.96264    1.000
    Si1615   Si       0.28931    0.11809    0.98633    1.000
    Si1616   Si       0.26672    0.06843    0.93510    1.000
    N1617    N        0.36292    0.07601    0.98968    1.000
    Si1618   Si       0.36432    0.11883    0.98031    1.000
    N1619    N        0.39488    0.11629    0.95119    1.000
    N1620    N        0.46848    0.11691    0.94952    1.000
    Si1621   Si       0.46421    0.07169    0.94903    1.000
    Si1622   Si       0.39505    0.09070    0.91683    1.000
    N1623    N        0.39051    0.11047    0.87811    1.000
    N1624    N        0.32048    0.14365    0.07834    1.000
    Si1625   Si       0.29267    0.16295    0.05246    1.000
    N1626    N        0.28220    0.15721    0.00964    1.000
    N1627    N        0.25144    0.15601    0.06702    1.000
    Si1628   Si       0.24490    0.17521    0.10704    1.000
    Si1629   Si       0.35489    0.12839    0.05912    1.000
    Si1630   Si       0.23685    0.16028    0.02582    1.000
    Si1631   Si       0.30775    0.14366    0.12199    1.000
    N1632    N        0.36408    0.14186    0.01754    1.000
    N1633    N        0.39651    0.13855    0.07024    1.000
    Si1634   Si       0.40362    0.15718    0.03007    1.000
    N1635    N        0.48177    0.17461    0.04772    1.000
    N1636    N        0.42928    0.13274    0.00609    1.000
    N1637    N        0.28605    0.18572    0.12152    1.000
    N1638    N        0.29260    0.16562    0.18476    1.000
    Si1639   Si       0.31938    0.16892    0.21653    1.000
    N1640    N        0.34565    0.14206    0.14198    1.000
    N1641    N        0.36146    0.15872    0.20766    1.000
    N1642    N        0.41129    0.12937    0.24126    1.000
    Si1643   Si       0.37852    0.14837    0.16947    1.000
    Si1644   Si       0.43437    0.14051    0.14460    1.000
    N1645    N        0.47210    0.15220    0.16470    1.000
    N1646    N        0.46602    0.17988    0.23998    1.000
    N1647    N        0.40783    0.17501    0.14886    1.000
    Si1648   Si       0.28501    0.15294    0.27361    1.000
    N1649    N        0.27474    0.16730    0.36479    1.000
    N1650    N        0.33766    0.13844    0.34552    1.000
    N1651    N        0.25313    0.16854    0.25039    1.000
    Si1652   Si       0.34593    0.17821    0.31568    1.000
    N1653    N        0.31916    0.13985    0.24864    1.000
    Si1654   Si       0.30367    0.13449    0.37197    1.000
    Si1655   Si       0.36816    0.13614    0.24673    1.000
    N1656    N        0.36759    0.14797    0.29069    1.000
    Si1657   Si       0.44043    0.15374    0.26207    1.000
    N1658    N        0.41153    0.13805    0.35159    1.000
    Si1659   Si       0.41823    0.17655    0.33300    1.000
    N1660    N        0.48480    0.14437    0.35117    1.000
    N1661    N        0.42229    0.18112    0.29045    1.000
    Si1662   Si       0.30984    0.17300    0.44149    1.000
    N1663    N        0.30922    0.14007    0.41510    1.000
    N1664    N        0.34761    0.17226    0.46187    1.000
    N1665    N        0.28201    0.15740    0.47110    1.000
    Si1666   Si       0.44066    0.18168    0.48642    1.000
    N1667    N        0.42173    0.15445    0.45828    1.000
    Si1668   Si       0.38303    0.16736    0.43714    1.000
    N1669    N        0.48192    0.16240    0.47726    1.000
    Si1670   Si       0.46764    0.15378    0.43501    1.000
    N1671    N        0.37816    0.13151    0.41304    1.000
    N1672    N        0.28880    0.14867    0.54268    1.000
    Si1673   Si       0.29150    0.16611    0.58515    1.000
    Si1674   Si       0.27784    0.17509    0.51014    1.000
    N1675    N        0.29920    0.13567    0.61309    1.000
    N1676    N        0.35724    0.16406    0.53850    1.000
    N1677    N        0.24960    0.18022    0.59518    1.000
    Si1678   Si       0.35946    0.18316    0.57794    1.000
    N1679    N        0.36645    0.15770    0.61291    1.000
    N1680    N        0.47954    0.13526    0.53948    1.000
    N1681    N        0.45449    0.16839    0.59498    1.000
    Si1682   Si       0.43983    0.15011    0.55719    1.000
    Si1683   Si       0.46398    0.13215    0.61776    1.000
    N1684    N        0.43049    0.18029    0.52779    1.000
    Si1685   Si       0.37285    0.12272    0.53643    1.000
    Si1686   Si       0.33507    0.13328    0.63548    1.000
    Si1687   Si       0.31644    0.17409    0.70009    1.000
    N1688    N        0.32049    0.13825    0.67614    1.000
    N1689    N        0.34814    0.17309    0.73124    1.000
    Si1690   Si       0.24402    0.15932    0.70124    1.000
    N1691    N        0.27665    0.18481    0.71065    1.000
    N1692    N        0.48713    0.17824    0.70794    1.000
    N1693    N        0.47853    0.14541    0.65626    1.000
    Si1694   Si       0.46586    0.17459    0.74537    1.000
    N1695    N        0.28436    0.15751    0.83312    1.000
    N1696    N        0.35126    0.16254    0.84967    1.000
    Si1697   Si       0.32264    0.13630    0.83111    1.000
    N1698    N        0.33756    0.12693    0.79316    1.000
    Si1699   Si       0.28043    0.13741    0.87252    1.000
    N1700    N        0.25584    0.18764    0.77524    1.000
    Si1701   Si       0.36218    0.14860    0.76356    1.000
    N1702    N        0.49027    0.15163    0.77476    1.000
    Si1703   Si       0.44393    0.16084    0.84841    1.000
    N1704    N        0.47686    0.13840    0.86527    1.000
    N1705    N        0.38101    0.17851    0.79009    1.000
    N1706    N        0.42957    0.13029    0.82057    1.000
    N1707    N        0.43079    0.14971    0.75258    1.000
    Si1708   Si       0.42337    0.18015    0.78525    1.000
    N1709    N        0.36079    0.16959    0.91986    1.000
    Si1710   Si       0.32052    0.15874    0.93414    1.000
    N1711    N        0.29012    0.15964    0.90561    1.000
    N1712    N        0.32418    0.12989    0.96475    1.000
    N1713    N        0.41504    0.17536    0.87605    1.000
    Si1714   Si       0.37771    0.15247    0.88316    1.000
    N1715    N        0.42837    0.18096    0.95029    1.000
    Si1716   Si       0.43153    0.13751    0.96236    1.000
    Si1717   Si       0.30686    0.21894    0.10075    1.000
    N1718    N        0.30426    0.20490    0.06028    1.000
    N1719    N        0.34574    0.23251    0.11434    1.000
    N1720    N        0.30029    0.23465    0.99950    1.000
    Si1721   Si       0.32197    0.23657    0.03659    1.000
    N1722    N        0.24075    0.20202    0.01809    1.000
    N1723    N        0.36560    0.23191    0.04508    1.000
    N1724    N        0.41953    0.19638    0.02863    1.000
    Si1725   Si       0.39273    0.22703    0.01205    1.000
    Si1726   Si       0.46086    0.20778    0.02726    1.000
    N1727    N        0.47138    0.20193    0.11517    1.000
    N1728    N        0.41265    0.22957    0.10822    1.000
    Si1729   Si       0.45230    0.23860    0.09780    1.000
    Si1730   Si       0.37675    0.22779    0.08524    1.000
    N1731    N        0.46867    0.24205    0.05596    1.000
    N1732    N        0.24974    0.22879    0.16574    1.000
    N1733    N        0.31485    0.20652    0.23675    1.000
    Si1734   Si       0.28514    0.20211    0.16374    1.000
    N1735    N        0.31793    0.22883    0.17205    1.000
    Si1736   Si       0.31588    0.24233    0.21233    1.000
    N1737    N        0.38997    0.24029    0.17355    1.000
    Si1738   Si       0.48341    0.19248    0.15651    1.000
    Si1739   Si       0.45161    0.21407    0.21789    1.000
    N1740    N        0.41035    0.22039    0.23438    1.000
    N1741    N        0.45684    0.22122    0.17444    1.000
    Si1742   Si       0.41786    0.21604    0.14948    1.000
    Si1743   Si       0.31551    0.21855    0.27859    1.000
    N1744    N        0.27970    0.22759    0.34980    1.000
    Si1745   Si       0.27106    0.19008    0.32811    1.000
    N1746    N        0.35848    0.21586    0.28847    1.000
    N1747    N        0.30318    0.18254    0.30129    1.000
    Si1748   Si       0.46287    0.23906    0.32010    1.000
    N1749    N        0.45220    0.20436    0.34483    1.000
    Si1750   Si       0.40069    0.21678    0.27856    1.000
    N1751    N        0.38084    0.19499    0.34564    1.000
    Si1752   Si       0.48189    0.18640    0.36767    1.000
    N1753    N        0.30021    0.20755    0.41583    1.000
    Si1754   Si       0.26863    0.20567    0.38727    1.000
    N1755    N        0.26628    0.24038    0.46301    1.000
    Si1756   Si       0.30395    0.24305    0.48400    1.000
    N1757    N        0.34434    0.24679    0.37814    1.000
    N1758    N        0.46243    0.19095    0.40911    1.000
    Si1759   Si       0.37600    0.23018    0.45740    1.000
    N1760    N        0.44916    0.22210    0.47460    1.000
    Si1761   Si       0.46640    0.22683    0.43387    1.000
    Si1762   Si       0.38228    0.22494    0.37862    1.000
    N1763    N        0.38278    0.20707    0.42081    1.000
    N1764    N        0.31749    0.19943    0.58748    1.000
    Si1765   Si       0.30254    0.23811    0.59627    1.000
    N1766    N        0.30789    0.20663    0.50805    1.000
    N1767    N        0.26783    0.24059    0.56952    1.000
    Si1768   Si       0.24082    0.21000    0.56389    1.000
    Si1769   Si       0.34768    0.18612    0.50311    1.000
    N1770    N        0.23834    0.18937    0.52475    1.000
    Si1771   Si       0.48146    0.20132    0.59925    1.000
    Si1772   Si       0.40585    0.21583    0.53227    1.000
    N1773    N        0.38426    0.21805    0.57014    1.000
    N1774    N        0.46751    0.23683    0.57706    1.000
    N1775    N        0.38056    0.21390    0.49787    1.000
    N1776    N        0.33271    0.21300    0.68662    1.000
    Si1777   Si       0.35995    0.21479    0.72076    1.000
    Si1778   Si       0.26401    0.21367    0.73959    1.000
    Si1779   Si       0.40420    0.23268    0.66253    1.000
    N1780    N        0.36702    0.23832    0.63868    1.000
    Si1781   Si       0.47135    0.18692    0.66620    1.000
    N1782    N        0.39170    0.23708    0.70453    1.000
    N1783    N        0.43032    0.20007    0.66396    1.000
    N1784    N        0.32034    0.20955    0.80331    1.000
    N1785    N        0.24713    0.21572    0.83632    1.000
    Si1786   Si       0.27821    0.19463    0.81181    1.000
    Si1787   Si       0.35736    0.19493    0.82105    1.000
    Si1788   Si       0.31928    0.24611    0.77880    1.000
    N1789    N        0.37559    0.22556    0.84307    1.000
    Si1790   Si       0.46644    0.23078    0.82457    1.000
    N1791    N        0.44686    0.19373    0.81939    1.000
    N1792    N        0.44299    0.21047    0.75711    1.000
    N1793    N        0.44784    0.24070    0.86348    1.000
    Si1794   Si       0.40993    0.21848    0.86976    1.000
    Si1795   Si       0.46798    0.24656    0.75550    1.000
    Si1796   Si       0.24504    0.22975    0.87716    1.000
    Si1797   Si       0.32973    0.22857    0.96687    1.000
    N1798    N        0.30355    0.19443    0.95557    1.000
    Si1799   Si       0.26983    0.19551    0.92158    1.000
    N1800    N        0.28183    0.23201    0.89892    1.000
    Si1801   Si       0.27205    0.20019    0.98730    1.000
    N1802    N        0.24123    0.20176    0.95513    1.000
    N1803    N        0.48564    0.20725    0.91581    1.000
    Si1804   Si       0.45863    0.21320    0.94732    1.000
    N1805    N        0.47671    0.21881    0.98889    1.000
    Si1806   Si       0.38957    0.19842    0.93891    1.000
    N1807    N        0.37129    0.21776    0.97491    1.000
    N1808    N        0.39790    0.23142    0.91242    1.000
    Si1809   Si       0.47644    0.24577    0.89683    1.000
    N1810    N        0.31815    0.27495    0.05716    1.000
    Si1811   Si       0.29257    0.28864    0.09092    1.000
    N1812    N        0.28165    0.25171    0.11149    1.000
    N1813    N        0.35221    0.29742    0.00458    1.000
    Si1814   Si       0.44868    0.27770    0.03656    1.000
    N1815    N        0.41791    0.26315    0.01078    1.000
    N1816    N        0.42990    0.29710    0.07069    1.000
    N1817    N        0.46296    0.26972    0.12491    1.000
    N1818    N        0.34999    0.29002    0.15695    1.000
    N1819    N        0.35067    0.26358    0.22443    1.000
    N1820    N        0.27555    0.26029    0.21840    1.000
    Si1821   Si       0.35157    0.24725    0.15367    1.000
    Si1822   Si       0.23609    0.25051    0.19994    1.000
    Si1823   Si       0.24214    0.24455    0.12544    1.000
    Si1824   Si       0.39274    0.25383    0.21515    1.000
    N1825    N        0.47362    0.24862    0.23385    1.000
    Si1826   Si       0.45697    0.28737    0.23171    1.000
    Si1827   Si       0.47287    0.26365    0.16694    1.000
    N1828    N        0.41265    0.28346    0.24068    1.000
    N1829    N        0.45806    0.29684    0.19017    1.000
    Si1830   Si       0.29100    0.26886    0.35887    1.000
    N1831    N        0.25621    0.28727    0.34318    1.000
    Si1832   Si       0.24865    0.26451    0.30490    1.000
    N1833    N        0.32268    0.29620    0.34589    1.000
    N1834    N        0.28789    0.25075    0.28378    1.000
    Si1835   Si       0.28002    0.28201    0.25415    1.000
    N1836    N        0.24494    0.29678    0.27534    1.000
    Si1837   Si       0.36258    0.28760    0.37092    1.000
    N1838    N        0.47286    0.27007    0.34888    1.000
    Si1839   Si       0.40780    0.28881    0.28360    1.000
    N1840    N        0.42544    0.24954    0.29707    1.000
    N1841    N        0.28922    0.27282    0.40570    1.000
    Si1842   Si       0.25303    0.25802    0.42629    1.000
    N1843    N        0.33522    0.24589    0.45635    1.000
    N1844    N        0.35111    0.30057    0.41300    1.000
    Si1845   Si       0.32125    0.24460    0.41512    1.000
    Si1846   Si       0.43478    0.26354    0.48544    1.000
    N1847    N        0.45785    0.26509    0.41677    1.000
    N1848    N        0.39627    0.26886    0.46385    1.000
    N1849    N        0.40322    0.26549    0.37466    1.000
    Si1850   Si       0.44376    0.28054    0.37918    1.000
    N1851    N        0.45448    0.30214    0.48402    1.000
    N1852    N        0.33346    0.26560    0.58563    1.000
    Si1853   Si       0.26743    0.27274    0.53856    1.000
    N1854    N        0.29699    0.28031    0.50455    1.000
    N1855    N        0.40786    0.27701    0.59561    1.000
    Si1856   Si       0.43859    0.26715    0.56737    1.000
    N1857    N        0.42666    0.25352    0.52755    1.000
    Si1858   Si       0.37183    0.25220    0.59757    1.000
    N1859    N        0.45805    0.30537    0.56104    1.000
    N1860    N        0.24264    0.28861    0.68565    1.000
    N1861    N        0.33302    0.28485    0.68107    1.000
    Si1862   Si       0.25641    0.26741    0.64848    1.000
    Si1863   Si       0.34634    0.28579    0.72206    1.000
    N1864    N        0.34425    0.24792    0.74374    1.000
    N1865    N        0.29336    0.24788    0.63839    1.000
    Si1866   Si       0.33023    0.24605    0.66107    1.000
    N1867    N        0.23603    0.29582    0.62189    1.000
    N1868    N        0.42296    0.27145    0.66472    1.000
    N1869    N        0.45423    0.27683    0.72730    1.000
    Si1870   Si       0.41531    0.27240    0.70788    1.000
    Si1871   Si       0.41446    0.29911    0.63342    1.000
    N1872    N        0.38636    0.30476    0.71884    1.000
    N1873    N        0.34114    0.27628    0.80248    1.000
    N1874    N        0.27916    0.24774    0.76344    1.000
    Si1875   Si       0.36172    0.26666    0.83995    1.000
    Si1876   Si       0.23798    0.26848    0.76058    1.000
    N1877    N        0.46985    0.26346    0.79488    1.000
    N1878    N        0.39470    0.29134    0.83551    1.000
    N1879    N        0.33034    0.28106    0.87186    1.000
    N1880    N        0.32904    0.26572    0.94100    1.000
    Si1881   Si       0.30263    0.26945    0.90513    1.000
    N1882    N        0.27280    0.30063    0.91233    1.000
    Si1883   Si       0.24109    0.30171    0.88257    1.000
    Si1884   Si       0.34548    0.29945    0.96074    1.000
    Si1885   Si       0.39603    0.29812    0.99648    1.000
    N1886    N        0.45055    0.25484    0.93255    1.000
    Si1887   Si       0.41067    0.27132    0.92522    1.000
    N1888    N        0.38751    0.29274    0.95400    1.000
    N1889    N        0.29921    0.33925    0.02618    1.000
    Si1890   Si       0.33778    0.34585    0.10192    1.000
    Si1891   Si       0.25789    0.33409    0.04143    1.000
    N1892    N        0.30103    0.32253    0.11428    1.000
    Si1893   Si       0.33057    0.31186    0.03884    1.000
    N1894    N        0.35933    0.32444    0.06974    1.000
    N1895    N        0.25732    0.30101    0.07005    1.000
    N1896    N        0.41105    0.33385    0.01751    1.000
    Si1897   Si       0.40123    0.32820    0.06001    1.000
    Si1898   Si       0.45249    0.30965    0.10564    1.000
    N1899    N        0.47372    0.30683    0.02036    1.000
    N1900    N        0.48088    0.33641    0.08728    1.000
    Si1901   Si       0.45280    0.33730    0.99806    1.000
    N1902    N        0.30658    0.31184    0.24400    1.000
    Si1903   Si       0.28012    0.34348    0.14821    1.000
    N1904    N        0.30671    0.34286    0.18244    1.000
    Si1905   Si       0.29877    0.35019    0.22466    1.000
    Si1906   Si       0.34886    0.33296    0.17124    1.000
    Si1907   Si       0.34960    0.30186    0.24328    1.000
    N1908    N        0.23719    0.34377    0.15687    1.000
    N1909    N        0.36263    0.35467    0.13621    1.000
    N1910    N        0.43187    0.33410    0.13722    1.000
    Si1911   Si       0.45957    0.33535    0.17049    1.000
    N1912    N        0.36355    0.33425    0.21311    1.000
    Si1913   Si       0.34656    0.32272    0.31981    1.000
    N1914    N        0.32875    0.36014    0.31004    1.000
    N1915    N        0.36474    0.30116    0.28533    1.000
    N1916    N        0.38048    0.32188    0.34707    1.000
    N1917    N        0.43128    0.32072    0.30257    1.000
    Si1918   Si       0.46664    0.33818    0.28457    1.000
    Si1919   Si       0.42033    0.33781    0.34338    1.000
    N1920    N        0.48397    0.31222    0.25574    1.000
    N1921    N        0.28301    0.32542    0.44866    1.000
    N1922    N        0.34385    0.32409    0.47419    1.000
    Si1923   Si       0.30841    0.31442    0.41585    1.000
    Si1924   Si       0.25362    0.35163    0.43297    1.000
    Si1925   Si       0.30216    0.32140    0.48800    1.000
    N1926    N        0.31511    0.35612    0.40157    1.000
    Si1927   Si       0.47638    0.34159    0.39766    1.000
    Si1928   Si       0.37447    0.30386    0.44942    1.000
    N1929    N        0.44462    0.32499    0.37578    1.000
    N1930    N        0.40005    0.33897    0.45804    1.000
    Si1931   Si       0.44144    0.34358    0.47427    1.000
    N1932    N        0.46636    0.35154    0.43822    1.000
    Si1933   Si       0.36772    0.36081    0.47642    1.000
    N1934    N        0.34402    0.33580    0.57094    1.000
    Si1935   Si       0.26564    0.34314    0.54816    1.000
    N1936    N        0.30048    0.34989    0.52181    1.000
    N1937    N        0.27905    0.30593    0.56463    1.000
    Si1938   Si       0.31796    0.30453    0.58428    1.000
    N1939    N        0.26085    0.36159    0.58843    1.000
    Si1940   Si       0.37626    0.34569    0.59811    1.000
    Si1941   Si       0.44835    0.33908    0.58509    1.000
    N1942    N        0.41051    0.35575    0.57384    1.000
    N1943    N        0.48382    0.36174    0.56922    1.000
    Si1944   Si       0.26337    0.33085    0.61764    1.000
    N1945    N        0.30358    0.31632    0.62392    1.000
    N1946    N        0.26715    0.34929    0.71394    1.000
    Si1947   Si       0.33610    0.32050    0.65377    1.000
    N1948    N        0.25231    0.35487    0.65411    1.000
    N1949    N        0.32215    0.35924    0.66942    1.000
    Si1950   Si       0.47227    0.31545    0.72439    1.000
    Si1951   Si       0.39798    0.34397    0.73647    1.000
    Si1952   Si       0.47167    0.34785    0.65413    1.000
    N1953    N        0.44023    0.34472    0.72237    1.000
    N1954    N        0.37425    0.32065    0.63374    1.000
    N1955    N        0.44452    0.32739    0.62621    1.000
    N1956    N        0.32604    0.33432    0.82329    1.000
    Si1957   Si       0.25068    0.32523    0.81389    1.000
    Si1958   Si       0.31106    0.31663    0.85856    1.000
    Si1959   Si       0.34706    0.31654    0.78832    1.000
    N1960    N        0.26188    0.31232    0.77327    1.000
    Si1961   Si       0.28861    0.33672    0.74820    1.000
    N1962    N        0.26922    0.30263    0.84796    1.000
    N1963    N        0.32572    0.31478    0.74766    1.000
    N1964    N        0.38268    0.34036    0.77644    1.000
    Si1965   Si       0.41805    0.31995    0.85648    1.000
    N1966    N        0.46010    0.32935    0.84871    1.000
    N1967    N        0.48745    0.32473    0.76202    1.000
    N1968    N        0.39709    0.35728    0.84315    1.000
    Si1969   Si       0.28954    0.33967    0.92743    1.000
    N1970    N        0.31906    0.33599    0.95860    1.000
    N1971    N        0.30758    0.34938    0.88785    1.000
    N1972    N        0.45468    0.33177    0.95453    1.000
    Si1973   Si       0.41860    0.34271    0.92914    1.000
    N1974    N        0.41494    0.30946    0.90046    1.000
    N1975    N        0.39476    0.36278    0.96046    1.000
    Si1976   Si       0.27966    0.39250    0.09031    1.000
    N1977    N        0.32123    0.38221    0.08155    1.000
    Si1978   Si       0.34428    0.40418    0.05290    1.000
    N1979    N        0.35140    0.37853    0.01546    1.000
    N1980    N        0.25231    0.36983    0.06500    1.000
    N1981    N        0.41199    0.40302    0.02016    1.000
    Si1982   Si       0.41141    0.40474    0.06348    1.000
    N1983    N        0.40972    0.36508    0.08059    1.000
    Si1984   Si       0.38984    0.37075    0.00245    1.000
    N1985    N        0.47366    0.37577    0.00115    1.000
    Si1986   Si       0.44779    0.41129    0.99689    1.000
    N1987    N        0.27595    0.38271    0.13194    1.000
    N1988    N        0.25564    0.36030    0.22972    1.000
    Si1989   Si       0.23852    0.39852    0.22381    1.000
    N1990    N        0.32399    0.38159    0.24122    1.000
    N1991    N        0.42108    0.40255    0.14379    1.000
    Si1992   Si       0.36648    0.37347    0.23063    1.000
    N1993    N        0.38036    0.40183    0.20094    1.000
    Si1994   Si       0.40385    0.36732    0.12469    1.000
    N1995    N        0.44912    0.36818    0.19619    1.000
    Si1996   Si       0.47097    0.39241    0.22925    1.000
    Si1997   Si       0.42218    0.40297    0.18812    1.000
    Si1998   Si       0.34769    0.40389    0.28932    1.000
    Si1999   Si       0.28930    0.38092    0.31336    1.000
    N2000    N        0.27115    0.38072    0.35345    1.000
    N2001    N        0.30188    0.41735    0.29577    1.000
    N2002    N        0.25019    0.36562    0.29692    1.000
    Si2003   Si       0.47468    0.38075    0.34324    1.000
    N2004    N        0.38383    0.38214    0.26944    1.000
    Si2005   Si       0.42099    0.39060    0.29113    1.000
    N2006    N        0.43143    0.38064    0.33469    1.000
    Si2007   Si       0.40166    0.40260    0.35867    1.000
    N2008    N        0.45474    0.37656    0.26596    1.000
    N2009    N        0.37309    0.41616    0.32686    1.000
    Si2010   Si       0.24338    0.41900    0.45021    1.000
    Si2011   Si       0.29035    0.39089    0.39055    1.000
    N2012    N        0.26097    0.39229    0.42320    1.000
    Si2013   Si       0.35011    0.38258    0.41267    1.000
    N2014    N        0.35356    0.39411    0.45452    1.000
    N2015    N        0.24723    0.40056    0.49192    1.000
    N2016    N        0.32738    0.41563    0.39449    1.000
    Si2017   Si       0.45048    0.41682    0.49138    1.000
    N2018    N        0.44818    0.41869    0.44443    1.000
    N2019    N        0.38959    0.38938    0.39759    1.000
    N2020    N        0.48340    0.38433    0.38801    1.000
    Si2021   Si       0.48097    0.39168    0.43245    1.000
    N2022    N        0.32639    0.40545    0.55488    1.000
    Si2023   Si       0.26747    0.40123    0.60368    1.000
    Si2024   Si       0.33473    0.36582    0.54244    1.000
    Si2025   Si       0.34181    0.41691    0.59333    1.000
    N2026    N        0.30623    0.40780    0.62086    1.000
    N2027    N        0.36260    0.38503    0.61332    1.000
    N2028    N        0.48602    0.40904    0.51462    1.000
    N2029    N        0.37171    0.36878    0.51780    1.000
    Si2030   Si       0.40770    0.38027    0.53817    1.000
    N2031    N        0.43240    0.37722    0.50169    1.000
    Si2032   Si       0.48916    0.40326    0.55745    1.000
    N2033    N        0.40011    0.42072    0.55511    1.000
    Si2034   Si       0.28308    0.37431    0.68186    1.000
    Si2035   Si       0.33756    0.39188    0.64709    1.000
    N2036    N        0.28465    0.41700    0.69134    1.000
    Si2037   Si       0.44219    0.38867    0.71264    1.000
    N2038    N        0.47657    0.39698    0.73916    1.000
    N2039    N        0.39796    0.38711    0.72715    1.000
    N2040    N        0.45705    0.38486    0.67021    1.000
    N2041    N        0.32219    0.39778    0.83815    1.000
    N2042    N        0.30261    0.37660    0.76978    1.000
    Si2043   Si       0.30276    0.37033    0.81248    1.000
    N2044    N        0.26098    0.36627    0.82331    1.000
    N2045    N        0.44177    0.37562    0.79148    1.000
    Si2046   Si       0.39816    0.37196    0.80262    1.000
    N2047    N        0.37521    0.40754    0.79216    1.000
    Si2048   Si       0.47801    0.36677    0.77205    1.000
    N2049    N        0.29776    0.40148    0.98191    1.000
    Si2050   Si       0.32469    0.38775    0.88063    1.000
    Si2051   Si       0.25758    0.39893    0.96521    1.000
    N2052    N        0.25518    0.36673    0.93657    1.000
    N2053    N        0.24454    0.40268    0.88153    1.000
    Si2054   Si       0.31719    0.36351    0.99254    1.000
    Si2055   Si       0.45642    0.40492    0.92014    1.000
    N2056    N        0.36461    0.39225    0.89689    1.000
    N2057    N        0.43061    0.37542    0.90292    1.000
    Si2058   Si       0.40138    0.38853    0.87467    1.000
    N2059    N        0.43749    0.42170    0.95567    1.000
    N2060    N        0.33466    0.44029    0.02908    1.000
    N2061    N        0.27614    0.43271    0.08281    1.000
    Si2062   Si       0.26772    0.47406    0.07873    1.000
    Si2063   Si       0.33455    0.47451    0.05414    1.000
    N2064    N        0.33830    0.47693    0.09654    1.000
    Si2065   Si       0.37552    0.45685    0.10827    1.000
    Si2066   Si       0.45850    0.45938    0.04948    1.000
    N2067    N        0.46590    0.44889    0.00792    1.000
    N2068    N        0.44305    0.42924    0.07898    1.000
    N2069    N        0.37542    0.42215    0.08042    1.000
    Si2070   Si       0.45521    0.42455    0.11956    1.000
    N2071    N        0.35775    0.47095    0.21073    1.000
    N2072    N        0.25865    0.43381    0.24012    1.000
    Si2073   Si       0.27158    0.43889    0.19680    1.000
    Si2074   Si       0.35206    0.43253    0.18820    1.000
    N2075    N        0.31011    0.42617    0.18654    1.000
    N2076    N        0.44568    0.42444    0.21871    1.000
    N2077    N        0.36636    0.45276    0.15124    1.000
    Si2078   Si       0.48275    0.47223    0.17233    1.000
    N2079    N        0.45813    0.46248    0.13828    1.000
    Si2080   Si       0.27799    0.44850    0.27813    1.000
    N2081    N        0.35752    0.44685    0.27408    1.000
    N2082    N        0.25574    0.47237    0.30812    1.000
    Si2083   Si       0.34184    0.47790    0.25016    1.000
    Si2084   Si       0.38859    0.45233    0.30419    1.000
    N2085    N        0.42628    0.43457    0.28635    1.000
    Si2086   Si       0.45406    0.44912    0.25569    1.000
    Si2087   Si       0.42032    0.48101    0.36177    1.000
    Si2088   Si       0.35461    0.43612    0.45998    1.000
    Si2089   Si       0.32267    0.45756    0.40239    1.000
    N2090    N        0.32327    0.46238    0.44636    1.000
    N2091    N        0.25757    0.45887    0.44396    1.000
    N2092    N        0.28287    0.46392    0.38360    1.000
    Si2093   Si       0.28973    0.47282    0.47011    1.000
    N2094    N        0.42134    0.43897    0.37605    1.000
    N2095    N        0.38672    0.45368    0.43501    1.000
    Si2096   Si       0.41593    0.42455    0.41678    1.000
    Si2097   Si       0.32340    0.44047    0.52939    1.000
    N2098    N        0.28632    0.45283    0.50971    1.000
    Si2099   Si       0.25210    0.43049    0.52463    1.000
    N2100    N        0.25883    0.43043    0.56835    1.000
    N2101    N        0.35729    0.44217    0.50311    1.000
    N2102    N        0.31778    0.47668    0.55516    1.000
    N2103    N        0.36146    0.45471    0.60524    1.000
    Si2104   Si       0.24214    0.45599    0.60105    1.000
    Si2105   Si       0.47949    0.46578    0.59738    1.000
    Si2106   Si       0.39297    0.45234    0.52696    1.000
    Si2107   Si       0.42215    0.43758    0.59213    1.000
    N2108    N        0.42815    0.45226    0.50324    1.000
    N2109    N        0.46456    0.42697    0.58158    1.000
    N2110    N        0.43730    0.47975    0.59140    1.000
    Si2111   Si       0.32337    0.43739    0.69779    1.000
    Si2112   Si       0.25436    0.44076    0.71180    1.000
    N2113    N        0.35287    0.42638    0.66851    1.000
    N2114    N        0.33632    0.41907    0.73511    1.000
    N2115    N        0.44239    0.43545    0.70031    1.000
    Si2116   Si       0.43175    0.46653    0.72759    1.000
    Si2117   Si       0.45458    0.42712    0.65891    1.000
    N2118    N        0.41730    0.43075    0.63519    1.000
    Si2119   Si       0.37990    0.45303    0.64605    1.000
    N2120    N        0.38955    0.46186    0.73620    1.000
    N2121    N        0.48423    0.45319    0.63966    1.000
    N2122    N        0.32056    0.44907    0.79454    1.000
    N2123    N        0.35019    0.44894    0.86526    1.000
    Si2124   Si       0.35031    0.42787    0.82432    1.000
    N2125    N        0.26845    0.43921    0.75348    1.000
    N2126    N        0.24343    0.43771    0.82182    1.000
    Si2127   Si       0.30376    0.42034    0.76469    1.000
    Si2128   Si       0.48590    0.45999    0.78756    1.000
    N2129    N        0.48520    0.43150    0.82109    1.000
    Si2130   Si       0.45197    0.43525    0.84644    1.000
    N2131    N        0.44719    0.46391    0.76953    1.000
    Si2132   Si       0.39349    0.46374    0.85775    1.000
    N2133    N        0.40956    0.42488    0.85450    1.000
    N2134    N        0.43723    0.47688    0.83807    1.000
    N2135    N        0.37819    0.47423    0.81489    1.000
    Si2136   Si       0.37613    0.42072    0.74770    1.000
    Si2137   Si       0.31344    0.47025    0.87604    1.000
    Si2138   Si       0.26867    0.42914    0.90647    1.000
    Si2139   Si       0.35145    0.43382    0.91430    1.000
    N2140    N        0.26960    0.46232    0.87985    1.000
    N2141    N        0.24740    0.43712    0.94436    1.000
    Si2142   Si       0.32350    0.43748    0.98727    1.000
    N2143    N        0.35561    0.43293    0.95974    1.000
    N2144    N        0.31018    0.41922    0.90826    1.000
    N2145    N        0.30539    0.47695    0.97867    1.000
    Si2146   Si       0.40030    0.44272    0.95504    1.000
    N2147    N        0.46652    0.43423    0.88832    1.000
    N2148    N        0.39113    0.45625    0.91558    1.000
    N2149    N        0.29317    0.48955    0.04678    1.000
    Si2150   Si       0.27766    0.49607    0.00595    1.000
    N2151    N        0.27500    0.49718    0.11314    1.000
    Si2152   Si       0.31785    0.50812    0.11858    1.000
    N2153    N        0.36240    0.50414    0.04099    1.000
    Si2154   Si       0.42018    0.51678    0.07815    1.000
    Si2155   Si       0.39807    0.50089    0.01549    1.000
    N2156    N        0.42816    0.49027    0.04483    1.000
    N2157    N        0.40523    0.48809    0.10914    1.000
    N2158    N        0.45915    0.52645    0.09341    1.000
    Si2159   Si       0.25045    0.49572    0.15082    1.000
    Si2160   Si       0.26774    0.49999    0.22950    1.000
    N2161    N        0.32629    0.51296    0.16007    1.000
    Si2162   Si       0.36031    0.49072    0.17140    1.000
    N2163    N        0.26360    0.48103    0.18988    1.000
    N2164    N        0.23585    0.53683    0.14941    1.000
    Si2165   Si       0.44574    0.51746    0.22529    1.000
    N2166    N        0.39295    0.51766    0.16495    1.000
    Si2167   Si       0.42690    0.49297    0.14953    1.000
    N2168    N        0.45020    0.49539    0.18865    1.000
    N2169    N        0.31307    0.50198    0.32831    1.000
    Si2170   Si       0.30973    0.51519    0.28708    1.000
    N2171    N        0.34994    0.51613    0.26787    1.000
    Si2172   Si       0.35152    0.50782    0.35034    1.000
    Si2173   Si       0.27572    0.48753    0.34453    1.000
    N2174    N        0.24718    0.51200    0.36633    1.000
    N2175    N        0.29863    0.48284    0.25773    1.000
    Si2176   Si       0.44301    0.51399    0.29536    1.000
    N2177    N        0.44625    0.49079    0.25882    1.000
    N2178    N        0.45068    0.48910    0.33195    1.000
    N2179    N        0.38383    0.48308    0.33428    1.000
    Si2180   Si       0.25104    0.48466    0.40688    1.000
    N2181    N        0.34975    0.48822    0.39003    1.000
    N2182    N        0.24115    0.52497    0.42723    1.000
    N2183    N        0.28926    0.51188    0.49340    1.000
    N2184    N        0.36819    0.53369    0.42832    1.000
    Si2185   Si       0.38233    0.49335    0.41822    1.000
    N2186    N        0.43647    0.51731    0.47183    1.000
    Si2187   Si       0.45376    0.51489    0.42921    1.000
    N2188    N        0.42228    0.50362    0.39980    1.000
    N2189    N        0.32825    0.51679    0.60757    1.000
    N2190    N        0.24924    0.50064    0.55179    1.000
    Si2191   Si       0.28672    0.49306    0.53296    1.000
    Si2192   Si       0.35073    0.48859    0.58062    1.000
    Si2193   Si       0.25097    0.54002    0.56916    1.000
    Si2194   Si       0.41316    0.50795    0.56978    1.000
    N2195    N        0.44075    0.51651    0.53934    1.000
    Si2196   Si       0.44680    0.49203    0.50380    1.000
    N2197    N        0.38149    0.48808    0.55000    1.000
    N2198    N        0.39500    0.53858    0.59576    1.000
    N2199    N        0.25733    0.48769    0.62534    1.000
    Si2200   Si       0.29005    0.51698    0.62377    1.000
    Si2201   Si       0.29156    0.50634    0.70387    1.000
    N2202    N        0.29531    0.52757    0.66697    1.000
    N2203    N        0.28048    0.52474    0.74040    1.000
    N2204    N        0.25293    0.48432    0.69938    1.000
    Si2205   Si       0.23955    0.50551    0.73631    1.000
    N2206    N        0.32537    0.47935    0.70436    1.000
    Si2207   Si       0.48611    0.52253    0.70443    1.000
    N2208    N        0.38299    0.53273    0.71049    1.000
    Si2209   Si       0.36667    0.49088    0.70830    1.000
    N2210    N        0.44559    0.50266    0.70695    1.000
    N2211    N        0.38812    0.48850    0.66883    1.000
    Si2212   Si       0.41543    0.52325    0.68149    1.000
    N2213    N        0.33788    0.52506    0.78626    1.000
    N2214    N        0.30905    0.49795    0.84091    1.000
    Si2215   Si       0.27418    0.52285    0.84593    1.000
    Si2216   Si       0.33559    0.48867    0.80937    1.000
    Si2217   Si       0.47071    0.50489    0.83974    1.000
    N2218    N        0.41436    0.52397    0.78374    1.000
    Si2219   Si       0.41576    0.48195    0.79671    1.000
    N2220    N        0.26055    0.50887    0.93823    1.000
    Si2221   Si       0.30509    0.50424    0.94326    1.000
    N2222    N        0.33128    0.48862    0.91179    1.000
    Si2223   Si       0.45677    0.47963    0.97691    1.000
    N2224    N        0.39279    0.50680    0.87411    1.000
    N2225    N        0.38469    0.52812    0.93761    1.000
    Si2226   Si       0.37528    0.49654    0.91029    1.000
    N2227    N        0.45837    0.52485    0.97198    1.000
    Si2228   Si       0.47929    0.52210    0.93014    1.000
    N2229    N        0.47793    0.47807    0.93940    1.000
    N2230    N        0.41215    0.47818    0.97947    1.000
    N2231    N        0.34064    0.56723    0.03060    1.000
    N2232    N        0.33093    0.54577    0.09824    1.000
    Si2233   Si       0.35275    0.54170    0.06204    1.000
    N2234    N        0.26969    0.53973    0.00272    1.000
    N2235    N        0.24311    0.55595    0.06794    1.000
    N2236    N        0.24880    0.59098    0.11971    1.000
    Si2237   Si       0.48091    0.56084    0.11010    1.000
    Si2238   Si       0.47723    0.55099    0.00207    1.000
    N2239    N        0.39769    0.55332    0.06807    1.000
    Si2240   Si       0.41034    0.57434    0.02837    1.000
    N2241    N        0.45307    0.57817    0.02889    1.000
    Si2242   Si       0.40282    0.58556    0.09633    1.000
    N2243    N        0.40097    0.54250    0.00050    1.000
    N2244    N        0.44213    0.58505    0.11677    1.000
    Si2245   Si       0.32727    0.57894    0.12422    1.000
    N2246    N        0.29993    0.57563    0.15998    1.000
    N2247    N        0.35099    0.56354    0.19791    1.000
    Si2248   Si       0.31332    0.54389    0.18663    1.000
    N2249    N        0.28642    0.53716    0.21940    1.000
    N2250    N        0.48125    0.55576    0.15375    1.000
    N2251    N        0.37165    0.58793    0.12730    1.000
    Si2252   Si       0.39224    0.55011    0.19075    1.000
    N2253    N        0.40654    0.53513    0.22819    1.000
    N2254    N        0.47530    0.54933    0.22711    1.000
    Si2255   Si       0.45320    0.59162    0.15831    1.000
    N2256    N        0.41564    0.58479    0.18006    1.000
    N2257    N        0.28772    0.55159    0.28573    1.000
    N2258    N        0.35580    0.55285    0.36098    1.000
    Si2259   Si       0.27291    0.56768    0.24787    1.000
    N2260    N        0.36456    0.58649    0.25900    1.000
    Si2261   Si       0.37575    0.59385    0.36176    1.000
    Si2262   Si       0.42505    0.57779    0.31225    1.000
    Si2263   Si       0.47705    0.57219    0.26503    1.000
    N2264    N        0.44576    0.56957    0.35171    1.000
    Si2265   Si       0.38120    0.54602    0.26237    1.000
    Si2266   Si       0.48247    0.55307    0.33891    1.000
    N2267    N        0.47565    0.54351    0.29852    1.000
    N2268    N        0.40957    0.54045    0.29515    1.000
    N2269    N        0.29708    0.54185    0.39587    1.000
    N2270    N        0.33854    0.58796    0.41989    1.000
    Si2271   Si       0.25552    0.54587    0.39164    1.000
    N2272    N        0.29337    0.58842    0.47979    1.000
    Si2273   Si       0.33772    0.54633    0.40108    1.000
    Si2274   Si       0.38003    0.57709    0.43246    1.000
    N2275    N        0.40079    0.59059    0.39604    1.000
    Si2276   Si       0.44407    0.58447    0.39349    1.000
    N2277    N        0.44966    0.55870    0.42697    1.000
    Si2278   Si       0.43780    0.56110    0.47031    1.000
    N2279    N        0.39873    0.58000    0.46854    1.000
    N2280    N        0.33764    0.58040    0.58388    1.000
    N2281    N        0.27978    0.56054    0.54287    1.000
    Si2282   Si       0.35668    0.55141    0.60988    1.000
    N2283    N        0.26885    0.54996    0.60689    1.000
    Si2284   Si       0.30054    0.59119    0.56534    1.000
    Si2285   Si       0.27657    0.55228    0.49790    1.000
    Si2286   Si       0.48720    0.60010    0.59911    1.000
    Si2287   Si       0.46271    0.55402    0.54285    1.000
    N2288    N        0.45746    0.57449    0.58099    1.000
    N2289    N        0.45181    0.57680    0.50856    1.000
    Si2290   Si       0.42516    0.56842    0.61156    1.000
    N2291    N        0.39747    0.60080    0.61278    1.000
    Si2292   Si       0.31604    0.56618    0.67012    1.000
    N2293    N        0.32627    0.57422    0.71217    1.000
    N2294    N        0.35592    0.56608    0.65033    1.000
    Si2295   Si       0.25989    0.58934    0.62744    1.000
    N2296    N        0.28679    0.59660    0.65902    1.000
    Si2297   Si       0.46037    0.58744    0.66769    1.000
    N2298    N        0.47607    0.56581    0.70138    1.000
    N2299    N        0.42780    0.55648    0.65655    1.000
    Si2300   Si       0.46969    0.58295    0.73906    1.000
    Si2301   Si       0.36799    0.57298    0.71822    1.000
    N2302    N        0.49049    0.57948    0.63734    1.000
    N2303    N        0.30699    0.58904    0.77666    1.000
    Si2304   Si       0.24358    0.57542    0.80559    1.000
    N2305    N        0.32148    0.59108    0.84528    1.000
    N2306    N        0.27357    0.54425    0.80684    1.000
    Si2307   Si       0.30131    0.54531    0.77209    1.000
    Si2308   Si       0.36531    0.58694    0.85898    1.000
    N2309    N        0.38048    0.55623    0.83176    1.000
    N2310    N        0.47413    0.55571    0.77230    1.000
    N2311    N        0.37597    0.57717    0.76129    1.000
    Si2312   Si       0.44076    0.55452    0.80049    1.000
    Si2313   Si       0.37563    0.54533    0.78901    1.000
    Si2314   Si       0.41232    0.54428    0.86236    1.000
    N2315    N        0.45005    0.54185    0.84038    1.000
    N2316    N        0.42950    0.59668    0.80393    1.000
    N2317    N        0.27666    0.54964    0.88092    1.000
    Si2318   Si       0.30652    0.58109    0.88417    1.000
    Si2319   Si       0.28247    0.56641    0.97079    1.000
    Si2320   Si       0.35295    0.56002    0.93838    1.000
    N2321    N        0.34788    0.57322    0.89700    1.000
    N2322    N        0.25064    0.57653    0.94381    1.000
    N2323    N        0.31372    0.54537    0.94812    1.000
    Si2324   Si       0.24978    0.54390    0.91531    1.000
    Si2325   Si       0.43652    0.58592    0.91150    1.000
    Si2326   Si       0.41842    0.54035    0.96037    1.000
    N2327    N        0.44723    0.54348    0.90953    1.000
    N2328    N        0.42379    0.58428    0.95276    1.000
    N2329    N        0.40945    0.58709    0.87741    1.000
    N2330    N        0.28017    0.61347    0.04885    1.000
    Si2331   Si       0.29024    0.63556    0.01510    1.000
    Si2332   Si       0.31760    0.63451    0.07000    1.000
    N2333    N        0.33468    0.63501    0.02832    1.000
    N2334    N        0.31357    0.61655    0.10951    1.000
    N2335    N        0.36100    0.64724    0.08045    1.000
    Si2336   Si       0.25098    0.59715    0.07555    1.000
    Si2337   Si       0.34564    0.59924    0.00306    1.000
    N2338    N        0.48053    0.63832    0.02923    1.000
    N2339    N        0.39036    0.60926    0.01084    1.000
    N2340    N        0.41696    0.61829    0.06832    1.000
    Si2341   Si       0.37951    0.63785    0.04233    1.000
    Si2342   Si       0.46179    0.61060    0.05860    1.000
    Si2343   Si       0.42681    0.64645    0.10051    1.000
    N2344    N        0.47025    0.65039    0.08996    1.000
    N2345    N        0.30148    0.60266    0.23907    1.000
    N2346    N        0.27655    0.64497    0.15952    1.000
    Si2347   Si       0.26611    0.60255    0.15653    1.000
    N2348    N        0.36054    0.62924    0.19142    1.000
    Si2349   Si       0.34300    0.59908    0.22242    1.000
    Si2350   Si       0.30493    0.65473    0.12818    1.000
    Si2351   Si       0.38713    0.61097    0.16027    1.000
    N2352    N        0.41342    0.64253    0.14267    1.000
    N2353    N        0.44851    0.64203    0.22512    1.000
    N2354    N        0.48357    0.62201    0.16902    1.000
    N2355    N        0.32343    0.63826    0.29422    1.000
    Si2356   Si       0.28822    0.63647    0.26336    1.000
    N2357    N        0.24840    0.62951    0.28056    1.000
    Si2358   Si       0.36451    0.61932    0.28667    1.000
    Si2359   Si       0.43276    0.64069    0.26580    1.000
    N2360    N        0.38831    0.65063    0.26547    1.000
    N2361    N        0.38782    0.60336    0.32067    1.000
    N2362    N        0.44554    0.60225    0.28003    1.000
    N2363    N        0.35102    0.63051    0.36867    1.000
    N2364    N        0.28126    0.62461    0.37259    1.000
    Si2365   Si       0.31783    0.62039    0.39459    1.000
    Si2366   Si       0.32393    0.60930    0.45736    1.000
    N2367    N        0.30555    0.64005    0.42986    1.000
    N2368    N        0.35382    0.63187    0.47735    1.000
    Si2369   Si       0.23682    0.62150    0.38305    1.000
    N2370    N        0.26359    0.65487    0.48040    1.000
    N2371    N        0.48010    0.61157    0.39499    1.000
    Si2372   Si       0.47943    0.64266    0.42412    1.000
    N2373    N        0.48256    0.62146    0.46254    1.000
    N2374    N        0.42606    0.63795    0.49318    1.000
    N2375    N        0.30781    0.62406    0.53833    1.000
    Si2376   Si       0.25109    0.63790    0.56809    1.000
    N2377    N        0.27175    0.61050    0.59186    1.000
    Si2378   Si       0.28050    0.62072    0.50425    1.000
    N2379    N        0.35053    0.65221    0.58356    1.000
    N2380    N        0.24192    0.61952    0.52710    1.000
    Si2381   Si       0.36964    0.61248    0.57912    1.000
    N2382    N        0.47659    0.63716    0.61414    1.000
    Si2383   Si       0.46391    0.61923    0.50312    1.000
    N2384    N        0.38364    0.60847    0.53873    1.000
    Si2385   Si       0.39079    0.61285    0.49625    1.000
    N2386    N        0.47241    0.65036    0.53555    1.000
    Si2387   Si       0.35130    0.64187    0.69539    1.000
    N2388    N        0.31241    0.64121    0.71633    1.000
    Si2389   Si       0.27824    0.62678    0.68931    1.000
    N2390    N        0.35425    0.63550    0.65246    1.000
    Si2391   Si       0.30167    0.60190    0.73628    1.000
    N2392    N        0.26102    0.60044    0.72279    1.000
    N2393    N        0.24547    0.65654    0.68338    1.000
    Si2394   Si       0.43949    0.65190    0.63549    1.000
    Si2395   Si       0.38440    0.60100    0.65376    1.000
    N2396    N        0.43380    0.60707    0.73708    1.000
    N2397    N        0.38097    0.61060    0.70150    1.000
    Si2398   Si       0.42101    0.63590    0.70763    1.000
    N2399    N        0.43263    0.62222    0.66571    1.000
    Si2400   Si       0.30538    0.61304    0.81203    1.000
    N2401    N        0.26203    0.61233    0.81961    1.000
    N2402    N        0.31733    0.65441    0.81141    1.000
    N2403    N        0.37549    0.62545    0.83600    1.000
    Si2404   Si       0.40366    0.60914    0.76973    1.000
    Si2405   Si       0.41832    0.61659    0.84243    1.000
    N2406    N        0.38350    0.64724    0.76881    1.000
    N2407    N        0.43671    0.65451    0.84180    1.000
    Si2408   Si       0.25565    0.61875    0.92244    1.000
    N2409    N        0.30130    0.60482    0.98161    1.000
    Si2410   Si       0.32374    0.61980    0.94614    1.000
    N2411    N        0.29958    0.61492    0.91004    1.000
    N2412    N        0.35835    0.59676    0.95877    1.000
    Si2413   Si       0.39807    0.61525    0.96672    1.000
    Si2414   Si       0.44253    0.65541    0.93254    1.000
    N2415    N        0.45827    0.62379    0.90741    1.000
    N2416    N        0.46430    0.64667    0.97074    1.000
    N2417    N        0.40065    0.65045    0.94506    1.000
    N2418    N        0.29818    0.67085    0.08736    1.000
    N2419    N        0.27482    0.67561    0.01162    1.000
    Si2420   Si       0.30687    0.71089    0.08181    1.000
    Si2421   Si       0.37673    0.68710    0.08010    1.000
    N2422    N        0.39386    0.67988    0.04025    1.000
    N2423    N        0.41646    0.68921    0.09938    1.000
    N2424    N        0.47124    0.70306    0.04249    1.000
    Si2425   Si       0.46397    0.67812    0.00267    1.000
    Si2426   Si       0.39300    0.71325    0.01053    1.000
    Si2427   Si       0.44097    0.71213    0.07034    1.000
    Si2428   Si       0.35740    0.67115    0.18383    1.000
    N2429    N        0.34821    0.69024    0.22135    1.000
    N2430    N        0.28515    0.67010    0.23438    1.000
    Si2431   Si       0.26783    0.67165    0.19254    1.000
    N2432    N        0.33311    0.67976    0.14846    1.000
    N2433    N        0.28261    0.71141    0.18339    1.000
    Si2434   Si       0.31109    0.70414    0.24062    1.000
    Si2435   Si       0.47206    0.65712    0.19303    1.000
    Si2436   Si       0.41909    0.68593    0.14460    1.000
    N2437    N        0.39064    0.69805    0.17440    1.000
    N2438    N        0.45538    0.68924    0.16743    1.000
    N2439    N        0.27266    0.68599    0.31258    1.000
    N2440    N        0.33257    0.69379    0.34951    1.000
    Si2441   Si       0.31566    0.67870    0.31264    1.000
    N2442    N        0.33365    0.70084    0.28022    1.000
    Si2443   Si       0.36916    0.67102    0.35861    1.000
    Si2444   Si       0.36975    0.68878    0.25831    1.000
    N2445    N        0.45297    0.67266    0.28807    1.000
    Si2446   Si       0.42362    0.70203    0.30092    1.000
    N2447    N        0.39574    0.68155    0.32657    1.000
    N2448    N        0.45701    0.69045    0.36705    1.000
    N2449    N        0.31626    0.69822    0.46726    1.000
    N2450    N        0.25286    0.69281    0.42612    1.000
    Si2451   Si       0.28527    0.67400    0.44743    1.000
    Si2452   Si       0.35121    0.67531    0.48635    1.000
    N2453    N        0.45551    0.70304    0.49376    1.000
    N2454    N        0.38834    0.68688    0.39387    1.000
    N2455    N        0.44738    0.67027    0.43130    1.000
    Si2456   Si       0.42989    0.69497    0.40025    1.000
    N2457    N        0.39041    0.69371    0.48012    1.000
    Si2458   Si       0.43021    0.67465    0.47251    1.000
    N2459    N        0.27876    0.67223    0.56982    1.000
    N2460    N        0.33776    0.69315    0.52804    1.000
    Si2461   Si       0.32052    0.66269    0.55303    1.000
    Si2462   Si       0.27301    0.71394    0.57248    1.000
    Si2463   Si       0.45788    0.69239    0.53754    1.000
    N2464    N        0.41727    0.69313    0.55526    1.000
    Si2465   Si       0.40869    0.70650    0.59540    1.000
    Si2466   Si       0.37635    0.71032    0.54351    1.000
    N2467    N        0.40521    0.67160    0.61876    1.000
    N2468    N        0.34476    0.70223    0.64049    1.000
    Si2469   Si       0.30553    0.68162    0.73273    1.000
    Si2470   Si       0.35267    0.70959    0.68359    1.000
    N2471    N        0.31050    0.71097    0.70189    1.000
    Si2472   Si       0.36238    0.66629    0.62323    1.000
    N2473    N        0.26556    0.68630    0.74394    1.000
    N2474    N        0.37261    0.67720    0.70632    1.000
    Si2475   Si       0.44612    0.70740    0.72291    1.000
    N2476    N        0.46398    0.68559    0.64927    1.000
    N2477    N        0.45252    0.66559    0.72047    1.000
    Si2478   Si       0.29356    0.68281    0.83613    1.000
    N2479    N        0.25034    0.67734    0.84121    1.000
    N2480    N        0.33783    0.69496    0.75932    1.000
    Si2481   Si       0.36152    0.65592    0.80870    1.000
    N2482    N        0.38071    0.69406    0.81255    1.000
    Si2483   Si       0.47532    0.66884    0.83545    1.000
    Si2484   Si       0.37998    0.68732    0.74975    1.000
    N2485    N        0.48763    0.71096    0.85599    1.000
    Si2486   Si       0.30112    0.66259    0.90838    1.000
    N2487    N        0.31171    0.68609    0.87462    1.000
    N2488    N        0.26412    0.66263    0.92764    1.000
    N2489    N        0.33464    0.66036    0.93619    1.000
    Si2490   Si       0.34180    0.71559    0.88486    1.000
    Si2491   Si       0.37147    0.68225    0.94178    1.000
    N2492    N        0.37832    0.70635    0.90557    1.000
    N2493    N        0.44921    0.69424    0.91463    1.000
    N2494    N        0.43228    0.70797    0.99027    1.000
    N2495    N        0.36922    0.71043    0.97314    1.000
    N2496    N        0.29448    0.73436    0.04605    1.000
    Si2497   Si       0.25617    0.75185    0.11285    1.000
    N2498    N        0.34921    0.71963    0.08257    1.000
    N2499    N        0.35984    0.74400    0.02296    1.000
    Si2500   Si       0.27735    0.71721    0.00876    1.000
    N2501    N        0.24403    0.74248    0.99560    1.000
    Si2502   Si       0.36925    0.75615    0.06621    1.000
    N2503    N        0.41264    0.74126    0.05318    1.000
    N2504    N        0.45979    0.73914    0.09863    1.000
    N2505    N        0.38857    0.76989    0.10560    1.000
    Si2506   Si       0.43061    0.76358    0.11544    1.000
    N2507    N        0.29227    0.72899    0.11843    1.000
    Si2508   Si       0.26654    0.74549    0.20442    1.000
    N2509    N        0.34561    0.74555    0.16956    1.000
    N2510    N        0.29617    0.74463    0.23685    1.000
    Si2511   Si       0.31539    0.71841    0.15304    1.000
    Si2512   Si       0.38955    0.74018    0.17690    1.000
    N2513    N        0.47201    0.74279    0.21637    1.000
    Si2514   Si       0.46414    0.73183    0.17467    1.000
    N2515    N        0.42724    0.74891    0.15602    1.000
    N2516    N        0.39642    0.76643    0.21069    1.000
    N2517    N        0.29659    0.74916    0.33836    1.000
    Si2518   Si       0.26269    0.72464    0.32976    1.000
    Si2519   Si       0.32796    0.73372    0.36667    1.000
    N2520    N        0.35671    0.77725    0.26967    1.000
    N2521    N        0.40121    0.71930    0.26700    1.000
    N2522    N        0.44584    0.73752    0.31697    1.000
    Si2523   Si       0.39231    0.75995    0.25208    1.000
    Si2524   Si       0.47597    0.72232    0.34551    1.000
    N2525    N        0.35961    0.75779    0.37644    1.000
    N2526    N        0.30680    0.73332    0.40625    1.000
    N2527    N        0.30958    0.76008    0.47959    1.000
    Si2528   Si       0.32588    0.73590    0.44657    1.000
    Si2529   Si       0.26471    0.72744    0.40216    1.000
    N2530    N        0.24591    0.75951    0.42419    1.000
    N2531    N        0.24154    0.71747    0.36645    1.000
    N2532    N        0.42614    0.76178    0.47883    1.000
    N2533    N        0.36720    0.74350    0.44172    1.000
    Si2534   Si       0.39094    0.73663    0.47581    1.000
    N2535    N        0.48801    0.74152    0.44384    1.000
    N2536    N        0.43090    0.73794    0.40756    1.000
    Si2537   Si       0.46554    0.74268    0.47958    1.000
    Si2538   Si       0.47037    0.75860    0.40992    1.000
    Si2539   Si       0.39152    0.75383    0.40684    1.000
    N2540    N        0.30098    0.73939    0.59575    1.000
    N2541    N        0.27734    0.73020    0.53226    1.000
    Si2542   Si       0.33901    0.73452    0.61512    1.000
    Si2543   Si       0.24953    0.76428    0.53102    1.000
    Si2544   Si       0.30834    0.72252    0.50552    1.000
    N2545    N        0.24497    0.77774    0.57253    1.000
    N2546    N        0.48623    0.76877    0.50768    1.000
    N2547    N        0.48804    0.71887    0.55602    1.000
    N2548    N        0.36910    0.72452    0.58408    1.000
    N2549    N        0.38015    0.74759    0.51808    1.000
    Si2550   Si       0.48029    0.76149    0.55054    1.000
    N2551    N        0.43073    0.73793    0.61314    1.000
    N2552    N        0.43835    0.76905    0.55203    1.000
    N2553    N        0.24110    0.73077    0.69217    1.000
    Si2554   Si       0.28160    0.74122    0.71085    1.000
    Si2555   Si       0.24446    0.77431    0.66484    1.000
    N2556    N        0.47773    0.72767    0.74107    1.000
    N2557    N        0.43866    0.73143    0.68761    1.000
    Si2558   Si       0.41027    0.76203    0.70314    1.000
    N2559    N        0.36875    0.74893    0.69471    1.000
    Si2560   Si       0.45506    0.72754    0.64731    1.000
    N2561    N        0.34860    0.73993    0.84998    1.000
    Si2562   Si       0.31372    0.75494    0.82893    1.000
    N2563    N        0.27760    0.75080    0.75138    1.000
    N2564    N        0.28974    0.72251    0.81233    1.000
    Si2565   Si       0.26548    0.71647    0.77688    1.000
    Si2566   Si       0.38491    0.73240    0.83009    1.000
    Si2567   Si       0.42557    0.75185    0.77471    1.000
    N2568    N        0.41955    0.73303    0.85703    1.000
    N2569    N        0.45927    0.75426    0.80154    1.000
    Si2570   Si       0.46032    0.74551    0.84490    1.000
    N2571    N        0.39177    0.76362    0.79889    1.000
    N2572    N        0.41269    0.71379    0.75041    1.000
    Si2573   Si       0.28419    0.74345    0.94084    1.000
    Si2574   Si       0.34455    0.74364    0.98384    1.000
    N2575    N        0.31499    0.73932    0.90854    1.000
    N2576    N        0.30538    0.72961    0.97747    1.000
    N2577    N        0.24633    0.72889    0.92242    1.000
    N2578    N        0.41199    0.76970    0.98896    1.000
    Si2579   Si       0.43691    0.74484    0.96490    1.000
    N2580    N        0.47801    0.75756    0.97285    1.000
    Si2581   Si       0.41795    0.72066    0.89821    1.000
    N2582    N        0.43564    0.75622    0.92247    1.000
    N2583    N        0.27996    0.79701    0.02277    1.000
    N2584    N        0.33921    0.79133    0.06759    1.000
    N2585    N        0.27078    0.78448    0.08975    1.000
    Si2586   Si       0.26014    0.82773    0.09768    1.000
    Si2587   Si       0.29937    0.77682    0.05646    1.000
    Si2588   Si       0.36449    0.82762    0.05681    1.000
    N2589    N        0.39280    0.80826    0.03163    1.000
    N2590    N        0.44977    0.80113    0.10737    1.000
    Si2591   Si       0.42448    0.77602    0.02956    1.000
    N2592    N        0.46793    0.77554    0.03122    1.000
    Si2593   Si       0.48959    0.80996    0.09117    1.000
    N2594    N        0.32945    0.80269    0.21285    1.000
    Si2595   Si       0.32276    0.78100    0.17658    1.000
    N2596    N        0.33240    0.80647    0.14223    1.000
    Si2597   Si       0.25009    0.80591    0.16319    1.000
    N2598    N        0.27859    0.77721    0.17889    1.000
    Si2599   Si       0.41090    0.80383    0.19427    1.000
    N2600    N        0.45027    0.81124    0.20914    1.000
    Si2601   Si       0.46170    0.78137    0.23728    1.000
    Si2602   Si       0.36987    0.80523    0.12247    1.000
    N2603    N        0.40118    0.81323    0.15387    1.000
    N2604    N        0.38941    0.83458    0.22073    1.000
    Si2605   Si       0.29650    0.78742    0.31994    1.000
    N2606    N        0.33468    0.80438    0.33220    1.000
    N2607    N        0.26088    0.81035    0.33239    1.000
    N2608    N        0.29798    0.80050    0.27727    1.000
    Si2609   Si       0.31972    0.77835    0.24762    1.000
    Si2610   Si       0.36472    0.80589    0.30115    1.000
    N2611    N        0.42534    0.78924    0.26539    1.000
    N2612    N        0.39594    0.78869    0.32792    1.000
    N2613    N        0.45819    0.80891    0.32762    1.000
    Si2614   Si       0.37521    0.79831    0.36409    1.000
    Si2615   Si       0.43309    0.77942    0.31033    1.000
    Si2616   Si       0.41427    0.83190    0.25793    1.000
    N2617    N        0.27981    0.81509    0.44416    1.000
    Si2618   Si       0.29378    0.80031    0.48260    1.000
    Si2619   Si       0.24196    0.80188    0.42638    1.000
    Si2620   Si       0.43310    0.82394    0.41636    1.000
    N2621    N        0.40207    0.79643    0.40063    1.000
    N2622    N        0.47084    0.80179    0.41702    1.000
    N2623    N        0.31310    0.80859    0.57991    1.000
    Si2624   Si       0.35027    0.80603    0.60167    1.000
    N2625    N        0.32152    0.82107    0.50506    1.000
    N2626    N        0.25692    0.79849    0.50532    1.000
    Si2627   Si       0.28391    0.78087    0.59449    1.000
    Si2628   Si       0.31332    0.83323    0.54596    1.000
    N2629    N        0.39655    0.81846    0.51335    1.000
    N2630    N        0.38662    0.79820    0.57604    1.000
    N2631    N        0.44297    0.80349    0.61485    1.000
    Si2632   Si       0.41054    0.77761    0.52014    1.000
    Si2633   Si       0.41987    0.77350    0.59073    1.000
    Si2634   Si       0.30049    0.81474    0.70144    1.000
    N2635    N        0.34122    0.81833    0.68918    1.000
    N2636    N        0.28135    0.77903    0.69123    1.000
    N2637    N        0.26649    0.79379    0.63318    1.000
    Si2638   Si       0.36351    0.78480    0.66912    1.000
    N2639    N        0.34703    0.77426    0.63076    1.000
    N2640    N        0.30203    0.81817    0.74553    1.000
    N2641    N        0.40570    0.79524    0.67555    1.000
    Si2642   Si       0.48519    0.79036    0.62046    1.000
    Si2643   Si       0.45348    0.81339    0.74255    1.000
    N2644    N        0.42472    0.78048    0.74025    1.000
    N2645    N        0.46037    0.82720    0.70379    1.000
    Si2646   Si       0.28919    0.78625    0.77246    1.000
    N2647    N        0.25894    0.80227    0.79872    1.000
    Si2648   Si       0.25116    0.78828    0.84110    1.000
    N2649    N        0.29019    0.77837    0.85734    1.000
    N2650    N        0.32610    0.78022    0.79610    1.000
    N2651    N        0.36182    0.81983    0.84102    1.000
    Si2652   Si       0.36382    0.79968    0.80243    1.000
    N2653    N        0.36620    0.83091    0.77207    1.000
    N2654    N        0.46443    0.78355    0.86421    1.000
    Si2655   Si       0.32162    0.81254    0.95014    1.000
    Si2656   Si       0.24641    0.80945    0.93882    1.000
    N2657    N        0.34674    0.78441    0.97147    1.000
    N2658    N        0.28454    0.78649    0.93830    1.000
    N2659    N        0.33430    0.81157    0.90748    1.000
    Si2660   Si       0.30652    0.77950    0.89652    1.000
    Si2661   Si       0.38147    0.80268    0.98857    1.000
    Si2662   Si       0.45092    0.79418    0.90453    1.000
    N2663    N        0.43651    0.83211    0.92430    1.000
    N2664    N        0.28461    0.84583    0.06672    1.000
    N2665    N        0.33895    0.85537    0.03747    1.000
    Si2666   Si       0.31556    0.87726    0.07092    1.000
    N2667    N        0.25859    0.86391    0.00984    1.000
    N2668    N        0.32827    0.86910    0.11086    1.000
    Si2669   Si       0.29009    0.83840    0.02358    1.000
    Si2670   Si       0.34780    0.86337    0.99408    1.000
    Si2671   Si       0.37103    0.87824    0.11056    1.000
    N2672    N        0.38521    0.83859    0.09674    1.000
    N2673    N        0.42831    0.88721    0.00836    1.000
    N2674    N        0.48794    0.83459    0.05542    1.000
    Si2675   Si       0.31204    0.84551    0.14239    1.000
    Si2676   Si       0.34829    0.84312    0.21368    1.000
    N2677    N        0.33145    0.86300    0.17783    1.000
    N2678    N        0.27137    0.83563    0.13873    1.000
    Si2679   Si       0.42327    0.83366    0.11897    1.000
    N2680    N        0.43943    0.87845    0.19715    1.000
    N2681    N        0.44785    0.86707    0.12679    1.000
    Si2682   Si       0.46418    0.85057    0.21907    1.000
    Si2683   Si       0.48934    0.87613    0.11942    1.000
    N2684    N        0.30738    0.86213    0.31510    1.000
    Si2685   Si       0.29563    0.84478    0.27489    1.000
    Si2686   Si       0.32952    0.84358    0.34941    1.000
    N2687    N        0.25789    0.85492    0.25859    1.000
    Si2688   Si       0.25997    0.83881    0.36606    1.000
    Si2689   Si       0.36160    0.87735    0.27089    1.000
    N2690    N        0.32871    0.85842    0.24924    1.000
    N2691    N        0.25430    0.88316    0.37400    1.000
    N2692    N        0.36964    0.84152    0.36294    1.000
    N2693    N        0.44365    0.86440    0.25776    1.000
    N2694    N        0.38261    0.84214    0.28584    1.000
    Si2695   Si       0.46912    0.88144    0.29002    1.000
    Si2696   Si       0.35448    0.87785    0.44720    1.000
    Si2697   Si       0.31131    0.83805    0.42510    1.000
    N2698    N        0.31472    0.88121    0.42883    1.000
    N2699    N        0.30118    0.84085    0.38201    1.000
    N2700    N        0.34828    0.83234    0.44737    1.000
    Si2701   Si       0.36073    0.82922    0.48867    1.000
    Si2702   Si       0.46849    0.87659    0.37163    1.000
    N2703    N        0.43486    0.85385    0.38440    1.000
    N2704    N        0.38362    0.88440    0.41615    1.000
    Si2705   Si       0.39649    0.87091    0.37696    1.000
    N2706    N        0.37748    0.87232    0.48504    1.000
    N2707    N        0.42963    0.84139    0.45568    1.000
    Si2708   Si       0.41708    0.85428    0.49295    1.000
    N2709    N        0.28749    0.87032    0.54259    1.000
    N2710    N        0.34998    0.85460    0.55402    1.000
    Si2711   Si       0.24398    0.87753    0.53340    1.000
    Si2712   Si       0.32548    0.89218    0.55643    1.000
    Si2713   Si       0.48450    0.88094    0.51059    1.000
    N2714    N        0.44361    0.87304    0.52244    1.000
    N2715    N        0.41566    0.85877    0.57998    1.000
    N2716    N        0.47198    0.88531    0.60088    1.000
    Si2717   Si       0.44404    0.88803    0.56559    1.000
    Si2718   Si       0.38970    0.83611    0.55310    1.000
    Si2719   Si       0.41303    0.83486    0.61684    1.000
    Si2720   Si       0.35846    0.88242    0.62542    1.000
    N2721    N        0.33556    0.88090    0.73026    1.000
    Si2722   Si       0.25628    0.87135    0.69763    1.000
    N2723    N        0.28519    0.84875    0.67980    1.000
    Si2724   Si       0.35145    0.85900    0.69431    1.000
    N2725    N        0.25716    0.89079    0.73614    1.000
    Si2726   Si       0.45878    0.89152    0.64155    1.000
    Si2727   Si       0.42349    0.83314    0.68419    1.000
    N2728    N        0.43083    0.85926    0.64941    1.000
    N2729    N        0.36918    0.84032    0.62187    1.000
    N2730    N        0.39492    0.85252    0.70865    1.000
    Si2731   Si       0.32799    0.85032    0.76095    1.000
    N2732    N        0.30761    0.87504    0.79000    1.000
    N2733    N        0.31828    0.87096    0.86526    1.000
    Si2734   Si       0.32871    0.88948    0.82562    1.000
    N2735    N        0.43638    0.84654    0.76566    1.000
    N2736    N        0.47316    0.84590    0.83125    1.000
    Si2737   Si       0.46448    0.86326    0.79390    1.000
    Si2738   Si       0.39602    0.85747    0.75270    1.000
    N2739    N        0.37253    0.89276    0.82786    1.000
    Si2740   Si       0.34757    0.83926    0.87654    1.000
    Si2741   Si       0.27436    0.86844    0.96803    1.000
    N2742    N        0.30941    0.84327    0.98045    1.000
    N2743    N        0.25624    0.85074    0.93379    1.000
    N2744    N        0.25002    0.88877    0.87294    1.000
    N2745    N        0.46947    0.83235    0.98680    1.000
    N2746    N        0.37933    0.86396    0.89401    1.000
    Si2747   Si       0.46555    0.87642    0.99304    1.000
    Si2748   Si       0.47643    0.84114    0.94401    1.000
    N2749    N        0.46803    0.88653    0.94909    1.000
    Si2750   Si       0.39883    0.85596    0.93157    1.000
    N2751    N        0.37562    0.84154    0.96806    1.000
    N2752    N        0.30192    0.91723    0.06683    1.000
    Si2753   Si       0.25994    0.92595    0.07737    1.000
    N2754    N        0.26990    0.93748    0.11783    1.000
    N2755    N        0.38401    0.90262    0.07942    1.000
    Si2756   Si       0.47911    0.94030    0.07656    1.000
    Si2757   Si       0.40089    0.94279    0.07879    1.000
    N2758    N        0.44023    0.94704    0.06026    1.000
    Si2759   Si       0.34122    0.90592    0.16568    1.000
    N2760    N        0.32883    0.92787    0.20066    1.000
    N2761    N        0.25612    0.92325    0.18395    1.000
    N2762    N        0.34133    0.93716    0.13573    1.000
    Si2763   Si       0.36677    0.93692    0.22176    1.000
    Si2764   Si       0.42736    0.88826    0.15742    1.000
    Si2765   Si       0.38891    0.94184    0.14858    1.000
    N2766    N        0.38494    0.89539    0.14967    1.000
    Si2767   Si       0.42673    0.89809    0.23434    1.000
    N2768    N        0.43893    0.93935    0.23140    1.000
    N2769    N        0.43522    0.93082    0.15472    1.000
    Si2770   Si       0.48104    0.94195    0.15262    1.000
    N2771    N        0.38372    0.90109    0.24026    1.000
    N2772    N        0.32304    0.90813    0.36259    1.000
    N2773    N        0.34680    0.91036    0.29571    1.000
    Si2774   Si       0.31105    0.90531    0.32030    1.000
    N2775    N        0.27865    0.93027    0.31082    1.000
    Si2776   Si       0.35811    0.93576    0.36214    1.000
    Si2777   Si       0.24153    0.94529    0.29733    1.000
    N2778    N        0.48403    0.91874    0.27513    1.000
    Si2779   Si       0.42921    0.92707    0.33804    1.000
    N2780    N        0.39298    0.90885    0.35657    1.000
    N2781    N        0.41645    0.93621    0.29578    1.000
    Si2782   Si       0.37321    0.94487    0.29310    1.000
    N2783    N        0.45633    0.89235    0.33230    1.000
    Si2784   Si       0.45207    0.94687    0.27467    1.000
    Si2785   Si       0.30884    0.93407    0.44575    1.000
    N2786    N        0.27956    0.93159    0.41210    1.000
    N2787    N        0.35372    0.92339    0.45670    1.000
    N2788    N        0.29158    0.93311    0.48587    1.000
    Si2789   Si       0.29275    0.89412    0.39156    1.000
    Si2790   Si       0.24827    0.94655    0.49287    1.000
    N2791    N        0.47632    0.90258    0.47321    1.000
    Si2792   Si       0.38460    0.92699    0.42319    1.000
    N2793    N        0.47532    0.90960    0.39984    1.000
    N2794    N        0.42301    0.94216    0.43178    1.000
    Si2795   Si       0.45509    0.94777    0.40366    1.000
    N2796    N        0.34435    0.91987    0.53004    1.000
    N2797    N        0.32974    0.89968    0.59920    1.000
    Si2798   Si       0.31230    0.94074    0.59909    1.000
    N2799    N        0.29153    0.93987    0.56176    1.000
    Si2800   Si       0.24703    0.94531    0.56214    1.000
    N2801    N        0.49023    0.90656    0.54699    1.000
    Si2802   Si       0.41388    0.93947    0.61238    1.000
    N2803    N        0.42230    0.92637    0.57093    1.000
    N2804    N        0.40673    0.93593    0.50062    1.000
    Si2805   Si       0.37041    0.91486    0.49676    1.000
    N2806    N        0.24068    0.90769    0.67340    1.000
    Si2807   Si       0.24678    0.93624    0.63850    1.000
    Si2808   Si       0.24527    0.92680    0.71397    1.000
    N2809    N        0.28906    0.94572    0.63455    1.000
    Si2810   Si       0.35931    0.91727    0.73800    1.000
    N2811    N        0.34278    0.88929    0.66626    1.000
    N2812    N        0.38667    0.92963    0.70417    1.000
    Si2813   Si       0.36361    0.92835    0.66746    1.000
    N2814    N        0.44790    0.93333    0.63891    1.000
    N2815    N        0.38498    0.91654    0.63196    1.000
    N2816    N        0.30114    0.92263    0.83588    1.000
    N2817    N        0.27430    0.94008    0.77829    1.000
    Si2818   Si       0.26900    0.89678    0.77869    1.000
    N2819    N        0.41260    0.95098    0.81265    1.000
    Si2820   Si       0.40337    0.91033    0.80080    1.000
    Si2821   Si       0.44303    0.93455    0.83910    1.000
    N2822    N        0.44417    0.89829    0.81136    1.000
    N2823    N        0.38876    0.89775    0.76267    1.000
    Si2824   Si       0.29111    0.90347    0.87284    1.000
    Si2825   Si       0.26858    0.93310    0.93968    1.000
    N2826    N        0.29166    0.93465    0.90274    1.000
    N2827    N        0.29388    0.90722    0.96665    1.000
    Si2828   Si       0.32763    0.92904    0.98328    1.000
    N2829    N        0.35903    0.92938    0.88317    1.000
    N2830    N        0.36179    0.90417    0.99323    1.000
    N2831    N        0.40698    0.89693    0.94247    1.000
    Si2832   Si       0.38502    0.89906    0.86974    1.000
    N2833    N        0.48560    0.89832    0.89102    1.000
    Si2834   Si       0.40425    0.91260    0.98402    1.000
    Si2835   Si       0.44422    0.90623    0.91577    1.000
    N2836    N        0.42459    0.91319    0.87560    1.000
    N2837    N        0.31604    0.98414    0.08633    1.000
    N2838    N        0.32009    0.96114    0.01202    1.000
    Si2839   Si       0.35463    0.99701    0.06480    1.000
    N2840    N        0.25856    0.95860    0.04716    1.000
    Si2841   Si       0.30216    0.95843    0.05163    1.000
    Si2842   Si       0.31846    0.00309    0.00362    1.000
    Si2843   Si       0.42016    0.96830    0.02854    1.000
    N2844    N        0.38115    0.96943    0.04876    1.000
    N2845    N        0.39686    0.96755    0.11400    1.000
    N2846    N        0.48071    0.96167    0.11326    1.000
    Si2847   Si       0.48056    0.00621    0.11627    1.000
    Si2848   Si       0.30867    0.96178    0.12281    1.000
    N2849    N        0.29695    0.97833    0.16118    1.000
    N2850    N        0.26843    0.96711    0.22664    1.000
    Si2851   Si       0.29064    0.94867    0.19355    1.000
    Si2852   Si       0.43251    0.96600    0.19762    1.000
    N2853    N        0.38889    0.95513    0.18921    1.000
    N2854    N        0.47117    0.97473    0.18115    1.000
    N2855    N        0.42515    0.00337    0.22053    1.000
    Si2856   Si       0.26657    0.99879    0.25341    1.000
    N2857    N        0.36202    0.96484    0.32980    1.000
    N2858    N        0.36044    0.96446    0.25456    1.000
    Si2859   Si       0.34524    0.00531    0.25610    1.000
    N2860    N        0.24069    0.98894    0.28724    1.000
    N2861    N        0.46467    0.98938    0.28176    1.000
    N2862    N        0.44124    0.95980    0.36469    1.000
    Si2863   Si       0.43907    0.00685    0.36874    1.000
    N2864    N        0.24095    0.99287    0.42505    1.000
    N2865    N        0.31480    0.97931    0.43986    1.000
    Si2866   Si       0.35647    0.98635    0.43034    1.000
    Si2867   Si       0.28275    0.00702    0.43571    1.000
    N2868    N        0.36411    0.95782    0.39931    1.000
    N2869    N        0.45260    0.98849    0.47009    1.000
    Si2870   Si       0.41878    0.96314    0.46923    1.000
    N2871    N        0.38312    0.99066    0.46649    1.000
    N2872    N        0.48256    0.98078    0.40791    1.000
    N2873    N        0.32895    0.98377    0.51117    1.000
    N2874    N        0.26414    0.98221    0.51609    1.000
    N2875    N        0.34162    0.96986    0.59184    1.000
    Si2876   Si       0.30805    0.94870    0.52382    1.000
    Si2877   Si       0.36737    0.00066    0.50494    1.000
    N2878    N        0.38875    0.98795    0.54034    1.000
    N2879    N        0.45827    0.97233    0.53454    1.000
    Si2880   Si       0.37332    0.99762    0.58001    1.000
    N2881    N        0.40557    0.98417    0.60923    1.000
    Si2882   Si       0.48053    0.99211    0.50141    1.000
    Si2883   Si       0.41807    0.95596    0.53839    1.000
    Si2884   Si       0.29661    0.96828    0.67234    1.000
    N2885    N        0.33917    0.96493    0.67379    1.000
    Si2886   Si       0.35855    0.00325    0.68101    1.000
    Si2887   Si       0.23854    0.00831    0.67723    1.000
    N2888    N        0.28124    0.00848    0.67201    1.000
    N2889    N        0.28087    0.95017    0.70881    1.000
    Si2890   Si       0.48563    0.95985    0.73772    1.000
    N2891    N        0.46290    0.99929    0.65407    1.000
    Si2892   Si       0.41280    0.96394    0.70994    1.000
    N2893    N        0.40046    0.99091    0.67821    1.000
    Si2894   Si       0.46990    0.95918    0.66667    1.000
    N2895    N        0.45477    0.95535    0.70727    1.000
    Si2896   Si       0.42086    0.00598    0.64424    1.000
    N2897    N        0.28795    0.99072    0.82244    1.000
    N2898    N        0.29152    0.00575    0.75312    1.000
    Si2899   Si       0.27196    0.95011    0.82013    1.000
    Si2900   Si       0.36080    0.99022    0.75527    1.000
    Si2901   Si       0.29867    0.96205    0.74915    1.000
    N2902    N        0.35486    0.00481    0.79638    1.000
    N2903    N        0.33990    0.95219    0.75189    1.000
    N2904    N        0.47461    0.96080    0.84792    1.000
    N2905    N        0.47194    0.97368    0.77701    1.000
    Si2906   Si       0.42885    0.98032    0.78516    1.000
    N2907    N        0.40371    0.98140    0.74914    1.000
    N2908    N        0.26440    0.97175    0.95558    1.000
    N2909    N        0.34130    0.99390    0.90228    1.000
    Si2910   Si       0.33169    0.95152    0.90621    1.000
    N2911    N        0.34421    0.95002    0.94788    1.000
    Si2912   Si       0.24949    0.00660    0.97270    1.000
    Si2913   Si       0.36075    0.99001    0.94215    1.000
    N2914    N        0.46923    0.99995    0.96993    1.000
    Si2915   Si       0.46776    0.97167    0.89134    1.000
    Si2916   Si       0.43612    0.97482    0.95405    1.000
    N2917    N        0.42069    0.95332    0.98820    1.000
    N2918    N        0.40344    0.99886    0.93652    1.000
    N2919    N        0.45167    0.94952    0.92359    1.000
    N2920    N        0.49746    0.03668    0.03372    1.000
    N2921    N        0.51842    0.01526    0.09678    1.000
    N2922    N        0.62660    0.03320    0.04751    1.000
    Si2923   Si       0.65860    0.03130    0.01865    1.000
    N2924    N        0.68062    0.04715    0.10767    1.000
    N2925    N        0.68543    0.05330    0.04351    1.000
    Si2926   Si       0.65179    0.05619    0.07390    1.000
    Si2927   Si       0.72803    0.04256    0.03961    1.000
    Si2928   Si       0.72322    0.05347    0.11499    1.000
    N2929    N        0.61984    0.06245    0.10583    1.000
    N2930    N        0.73871    0.01342    0.11374    1.000
    Si2931   Si       0.52135    0.05229    0.12176    1.000
    Si2932   Si       0.59480    0.03274    0.12631    1.000
    N2933    N        0.56073    0.05619    0.14169    1.000
    N2934    N        0.49214    0.03103    0.15030    1.000
    Si2935   Si       0.58886    0.06492    0.23453    1.000
    N2936    N        0.71540    0.05719    0.22260    1.000
    N2937    N        0.63121    0.06237    0.22872    1.000
    N2938    N        0.62514    0.01170    0.15055    1.000
    Si2939   Si       0.70066    0.05711    0.18229    1.000
    Si2940   Si       0.66354    0.01612    0.13260    1.000
    N2941    N        0.68622    0.01830    0.17000    1.000
    N2942    N        0.52507    0.02993    0.28693    1.000
    Si2943   Si       0.49187    0.06650    0.34833    1.000
    N2944    N        0.60574    0.01010    0.36519    1.000
    N2945    N        0.57662    0.02535    0.24180    1.000
    N2946    N        0.61776    0.00747    0.30252    1.000
    Si2947   Si       0.65317    0.03371    0.30899    1.000
    N2948    N        0.68251    0.03251    0.27910    1.000
    N2949    N        0.66654    0.02828    0.35194    1.000
    Si2950   Si       0.70401    0.04489    0.36429    1.000
    Si2951   Si       0.62579    0.04920    0.36416    1.000
    Si2952   Si       0.70925    0.06096    0.26455    1.000
    N2953    N        0.73328    0.02000    0.33979    1.000
    N2954    N        0.55023    0.03260    0.47715    1.000
    N2955    N        0.53822    0.02620    0.40102    1.000
    Si2956   Si       0.53194    0.04419    0.43952    1.000
    N2957    N        0.59803    0.00936    0.43336    1.000
    Si2958   Si       0.64130    0.02032    0.42875    1.000
    N2959    N        0.63988    0.05670    0.40596    1.000
    N2960    N        0.66232    0.02758    0.46648    1.000
    N2961    N        0.72303    0.04352    0.40238    1.000
    Si2962   Si       0.68167    0.05544    0.49256    1.000
    N2963    N        0.55536    0.03948    0.54266    1.000
    Si2964   Si       0.51903    0.01950    0.55682    1.000
    Si2965   Si       0.59534    0.01987    0.54456    1.000
    N2966    N        0.49811    0.03996    0.58796    1.000
    Si2967   Si       0.54492    0.06393    0.50673    1.000
    N2968    N        0.49011    0.03013    0.51696    1.000
    N2969    N        0.61064    0.01087    0.50575    1.000
    N2970    N        0.62534    0.04427    0.56529    1.000
    N2971    N        0.68367    0.02399    0.52365    1.000
    Si2972   Si       0.63194    0.02976    0.60715    1.000
    N2973    N        0.59687    0.01576    0.62982    1.000
    N2974    N        0.53365    0.01458    0.66365    1.000
    Si2975   Si       0.56519    0.03805    0.64687    1.000
    N2976    N        0.57298    0.02445    0.72979    1.000
    Si2977   Si       0.52895    0.02933    0.72949    1.000
    Si2978   Si       0.59791    0.05685    0.71734    1.000
    N2979    N        0.49450    0.04751    0.70583    1.000
    Si2980   Si       0.49156    0.03112    0.66554    1.000
    N2981    N        0.58853    0.06953    0.67564    1.000
    N2982    N        0.64803    0.06415    0.62781    1.000
    Si2983   Si       0.72158    0.04703    0.73184    1.000
    N2984    N        0.63913    0.04844    0.72073    1.000
    N2985    N        0.70568    0.03375    0.68982    1.000
    Si2986   Si       0.65986    0.01085    0.72839    1.000
    Si2987   Si       0.56866    0.02241    0.83872    1.000
    N2988    N        0.51449    0.05200    0.76438    1.000
    Si2989   Si       0.50874    0.05534    0.80611    1.000
    N2990    N        0.54699    0.05985    0.82848    1.000
    N2991    N        0.61128    0.03302    0.85115    1.000
    N2992    N        0.58683    0.00996    0.79809    1.000
    Si2993   Si       0.69288    0.03856    0.79008    1.000
    N2994    N        0.65420    0.04807    0.80560    1.000
    N2995    N        0.71357    0.02009    0.82278    1.000
    Si2996   Si       0.73320    0.05419    0.84827    1.000
    N2997    N        0.69645    0.01329    0.75314    1.000
    Si2998   Si       0.62849    0.01067    0.81229    1.000
    N2999    N        0.50243    0.04822    0.93810    1.000
    N3000    N        0.57641    0.04616    0.97580    1.000
    Si3001   Si       0.59934    0.04307    0.89205    1.000
    N3002    N        0.56069    0.02228    0.88539    1.000
    Si3003   Si       0.61446    0.02577    0.96381    1.000
    N3004    N        0.71603    0.00985    0.94798    1.000
    N3005    N        0.64745    0.05034    0.98135    1.000
    Si3006   Si       0.70571    0.02621    0.90896    1.000
    N3007    N        0.68446    0.06429    0.91783    1.000
    N3008    N        0.62194    0.01883    0.92169    1.000
    N3009    N        0.50991    0.08140    0.09214    1.000
    N3010    N        0.54879    0.08707    0.02670    1.000
    Si3011   Si       0.51133    0.07700    0.04793    1.000
    Si3012   Si       0.57392    0.12264    0.03440    1.000
    Si3013   Si       0.49502    0.11513    0.11750    1.000
    N3014    N        0.60267    0.11911    0.06451    1.000
    N3015    N        0.48740    0.10806    0.02813    1.000
    Si3016   Si       0.62271    0.10499    0.10075    1.000
    Si3017   Si       0.70321    0.09884    0.07419    1.000
    N3018    N        0.65916    0.10103    0.07345    1.000
    N3019    N        0.70608    0.11240    0.11935    1.000
    N3020    N        0.73787    0.06806    0.07464    1.000
    Si3021   Si       0.55277    0.09248    0.16369    1.000
    N3022    N        0.50934    0.09759    0.15575    1.000
    N3023    N        0.56199    0.08463    0.20547    1.000
    Si3024   Si       0.54951    0.11509    0.23480    1.000
    Si3025   Si       0.49214    0.12260    0.18837    1.000
    N3026    N        0.73332    0.06513    0.15721    1.000
    N3027    N        0.67232    0.08862    0.17777    1.000
    Si3028   Si       0.65289    0.09906    0.21707    1.000
    Si3029   Si       0.67286    0.11889    0.14677    1.000
    N3030    N        0.51517    0.08855    0.31984    1.000
    N3031    N        0.57925    0.08137    0.27418    1.000
    Si3032   Si       0.60073    0.11597    0.36140    1.000
    Si3033   Si       0.53858    0.07100    0.28694    1.000
    N3034    N        0.51704    0.08957    0.25456    1.000
    N3035    N        0.58696    0.07279    0.36577    1.000
    Si3036   Si       0.61425    0.09630    0.29259    1.000
    Si3037   Si       0.66271    0.10671    0.34344    1.000
    N3038    N        0.70966    0.09996    0.28460    1.000
    N3039    N        0.70050    0.08646    0.35153    1.000
    Si3040   Si       0.72804    0.10628    0.32359    1.000
    N3041    N        0.64105    0.11679    0.26472    1.000
    N3042    N        0.63794    0.07425    0.32316    1.000
    N3043    N        0.50884    0.08597    0.38246    1.000
    Si3044   Si       0.58268    0.10137    0.46002    1.000
    N3045    N        0.55854    0.07826    0.43425    1.000
    Si3046   Si       0.55161    0.08532    0.39100    1.000
    Si3047   Si       0.48674    0.12055    0.38794    1.000
    N3048    N        0.51355    0.09131    0.49830    1.000
    Si3049   Si       0.64217    0.12157    0.49199    1.000
    Si3050   Si       0.72217    0.07404    0.43434    1.000
    N3051    N        0.69010    0.10417    0.43368    1.000
    N3052    N        0.63930    0.11519    0.37966    1.000
    N3053    N        0.62425    0.10761    0.45413    1.000
    Si3054   Si       0.64976    0.09694    0.41935    1.000
    N3055    N        0.72207    0.06318    0.47779    1.000
    Si3056   Si       0.58994    0.11677    0.53759    1.000
    Si3057   Si       0.50520    0.07424    0.61335    1.000
    N3058    N        0.49974    0.11444    0.60064    1.000
    N3059    N        0.58088    0.08902    0.50179    1.000
    N3060    N        0.55266    0.12981    0.55223    1.000
    N3061    N        0.62250    0.10850    0.56515    1.000
    Si3062   Si       0.73008    0.10097    0.57060    1.000
    N3063    N        0.65755    0.08559    0.50949    1.000
    N3064    N        0.68908    0.08571    0.57307    1.000
    Si3065   Si       0.67996    0.09139    0.61471    1.000
    Si3066   Si       0.64990    0.07874    0.55196    1.000
    N3067    N        0.73924    0.10892    0.52827    1.000
    Si3068   Si       0.56488    0.10180    0.65391    1.000
    N3069    N        0.50589    0.11300    0.72473    1.000
    N3070    N        0.60102    0.11339    0.63255    1.000
    N3071    N        0.60304    0.09398    0.73921    1.000
    N3072    N        0.54458    0.07145    0.62899    1.000
    N3073    N        0.64640    0.10942    0.68535    1.000
    Si3074   Si       0.64580    0.09134    0.72558    1.000
    Si3075   Si       0.72279    0.07050    0.67473    1.000
    N3076    N        0.71764    0.08933    0.71415    1.000
    N3077    N        0.71572    0.09168    0.63860    1.000
    Si3078   Si       0.62668    0.08787    0.65539    1.000
    Si3079   Si       0.56006    0.09971    0.82496    1.000
    Si3080   Si       0.59505    0.11772    0.77530    1.000
    N3081    N        0.60352    0.09787    0.81493    1.000
    N3082    N        0.55267    0.11795    0.78521    1.000
    N3083    N        0.49234    0.09423    0.81578    1.000
    N3084    N        0.69971    0.08745    0.85390    1.000
    Si3085   Si       0.63309    0.07177    0.83515    1.000
    N3086    N        0.66611    0.11642    0.75548    1.000
    Si3087   Si       0.70785    0.10999    0.75278    1.000
    Si3088   Si       0.71611    0.12491    0.84323    1.000
    N3089    N        0.72381    0.12485    0.79749    1.000
    N3090    N        0.71891    0.06771    0.77182    1.000
    N3091    N        0.51103    0.09118    0.88747    1.000
    N3092    N        0.57925    0.07922    0.90774    1.000
    N3093    N        0.53450    0.09691    0.95573    1.000
    Si3094   Si       0.56341    0.08619    0.98557    1.000
    Si3095   Si       0.61273    0.10828    0.90708    1.000
    Si3096   Si       0.53496    0.07301    0.91805    1.000
    N3097    N        0.58649    0.12158    0.99257    1.000
    N3098    N        0.63828    0.09033    0.87554    1.000
    Si3099   Si       0.67905    0.09632    0.88988    1.000
    N3100    N        0.70014    0.09753    0.98043    1.000
    N3101    N        0.63623    0.10681    0.94420    1.000
    Si3102   Si       0.66966    0.07956    0.95643    1.000
    N3103    N        0.54645    0.15377    0.04372    1.000
    Si3104   Si       0.50620    0.14656    0.02648    1.000
    N3105    N        0.51762    0.15230    0.10887    1.000
    N3106    N        0.58245    0.17956    0.10626    1.000
    Si3107   Si       0.49799    0.18388    0.08759    1.000
    Si3108   Si       0.69493    0.13145    0.00950    1.000
    Si3109   Si       0.73140    0.16951    0.06914    1.000
    N3110    N        0.64203    0.17114    0.07425    1.000
    Si3111   Si       0.64304    0.13268    0.05333    1.000
    N3112    N        0.70889    0.13454    0.05190    1.000
    N3113    N        0.65069    0.13150    0.01096    1.000
    N3114    N        0.73353    0.17689    0.11681    1.000
    Si3115   Si       0.62574    0.17636    0.11564    1.000
    Si3116   Si       0.55014    0.16759    0.13442    1.000
    N3117    N        0.52023    0.14222    0.21546    1.000
    Si3118   Si       0.60588    0.14307    0.16618    1.000
    N3119    N        0.56740    0.13175    0.15413    1.000
    N3120    N        0.60395    0.18587    0.16626    1.000
    Si3121   Si       0.50836    0.16985    0.24558    1.000
    Si3122   Si       0.62478    0.15337    0.24063    1.000
    N3123    N        0.63336    0.13263    0.13199    1.000
    Si3124   Si       0.68558    0.16506    0.20717    1.000
    N3125    N        0.62549    0.12940    0.20316    1.000
    N3126    N        0.68838    0.15689    0.16357    1.000
    N3127    N        0.68657    0.12677    0.22729    1.000
    N3128    N        0.51402    0.16158    0.28781    1.000
    N3129    N        0.60256    0.12820    0.32109    1.000
    Si3130   Si       0.49504    0.12750    0.31332    1.000
    N3131    N        0.57627    0.14946    0.24580    1.000
    N3132    N        0.62767    0.17986    0.27536    1.000
    N3133    N        0.67001    0.14162    0.32022    1.000
    N3134    N        0.70176    0.17260    0.27686    1.000
    Si3135   Si       0.62986    0.16210    0.31500    1.000
    Si3136   Si       0.70311    0.17663    0.32138    1.000
    Si3137   Si       0.68334    0.13118    0.27400    1.000
    N3138    N        0.73549    0.14898    0.33439    1.000
    N3139    N        0.50801    0.14723    0.41763    1.000
    Si3140   Si       0.54961    0.15567    0.41241    1.000
    N3141    N        0.56685    0.14205    0.45149    1.000
    Si3142   Si       0.58873    0.16860    0.47826    1.000
    N3143    N        0.56685    0.12717    0.38538    1.000
    Si3144   Si       0.69466    0.14526    0.45020    1.000
    N3145    N        0.73830    0.15252    0.46620    1.000
    N3146    N        0.67257    0.15067    0.48719    1.000
    N3147    N        0.68539    0.17997    0.42649    1.000
    Si3148   Si       0.51485    0.14047    0.56837    1.000
    N3149    N        0.60930    0.14810    0.51218    1.000
    N3150    N        0.51807    0.18185    0.58272    1.000
    Si3151   Si       0.61492    0.18105    0.54611    1.000
    Si3152   Si       0.74004    0.14916    0.50928    1.000
    N3153    N        0.62244    0.17011    0.58834    1.000
    N3154    N        0.73313    0.13875    0.59303    1.000
    Si3155   Si       0.62735    0.13028    0.60287    1.000
    N3156    N        0.66535    0.13138    0.62411    1.000
    Si3157   Si       0.50633    0.13876    0.68951    1.000
    N3158    N        0.54717    0.16819    0.73596    1.000
    N3159    N        0.54463    0.13284    0.67078    1.000
    N3160    N        0.72425    0.15016    0.74412    1.000
    Si3161   Si       0.65964    0.14854    0.66792    1.000
    N3162    N        0.70507    0.15416    0.66888    1.000
    Si3163   Si       0.70637    0.15554    0.62336    1.000
    Si3164   Si       0.70310    0.17000    0.71090    1.000
    N3165    N        0.65954    0.17117    0.71316    1.000
    Si3166   Si       0.52550    0.13592    0.75710    1.000
    Si3167   Si       0.57727    0.16686    0.86420    1.000
    N3168    N        0.61007    0.15729    0.76528    1.000
    N3169    N        0.55179    0.13278    0.85256    1.000
    N3170    N        0.69721    0.16420    0.84020    1.000
    Si3171   Si       0.71400    0.16685    0.79509    1.000
    Si3172   Si       0.65217    0.15800    0.75439    1.000
    N3173    N        0.67783    0.18420    0.77879    1.000
    N3174    N        0.51010    0.16161    0.98765    1.000
    N3175    N        0.59794    0.14845    0.89767    1.000
    N3176    N        0.52119    0.15052    0.91984    1.000
    Si3177   Si       0.51875    0.13312    0.88080    1.000
    Si3178   Si       0.50840    0.12949    0.95621    1.000
    N3179    N        0.69864    0.13551    0.89978    1.000
    N3180    N        0.62745    0.17482    0.96029    1.000
    N3181    N        0.71636    0.16600    0.99618    1.000
    Si3182   Si       0.62557    0.13400    0.97572    1.000
    Si3183   Si       0.69292    0.17603    0.88106    1.000
    Si3184   Si       0.62029    0.18039    0.91787    1.000
    N3185    N        0.52998    0.21141    0.07782    1.000
    N3186    N        0.53662    0.22994    0.01775    1.000
    N3187    N        0.59606    0.20163    0.03903    1.000
    Si3188   Si       0.56471    0.18848    0.06625    1.000
    Si3189   Si       0.58007    0.23821    0.02040    1.000
    Si3190   Si       0.63847    0.20604    0.04813    1.000
    N3191    N        0.71102    0.20773    0.05669    1.000
    N3192    N        0.66058    0.20520    0.01259    1.000
    Si3193   Si       0.70496    0.20484    0.01263    1.000
    N3194    N        0.52858    0.19848    0.15458    1.000
    N3195    N        0.59966    0.21970    0.23188    1.000
    Si3196   Si       0.54289    0.23583    0.16893    1.000
    N3197    N        0.53273    0.20648    0.24122    1.000
    N3198    N        0.65053    0.18932    0.21626    1.000
    N3199    N        0.72444    0.18510    0.21484    1.000
    N3200    N        0.65767    0.20402    0.13028    1.000
    Si3201   Si       0.62010    0.21455    0.19275    1.000
    N3202    N        0.71633    0.22681    0.16161    1.000
    Si3203   Si       0.69740    0.19347    0.14206    1.000
    N3204    N        0.56655    0.20142    0.29719    1.000
    Si3205   Si       0.59827    0.22313    0.31542    1.000
    Si3206   Si       0.52587    0.19669    0.31066    1.000
    N3207    N        0.52049    0.19733    0.35257    1.000
    N3208    N        0.50076    0.22934    0.29679    1.000
    Si3209   Si       0.57377    0.19247    0.25449    1.000
    Si3210   Si       0.55080    0.22184    0.37078    1.000
    Si3211   Si       0.51181    0.24144    0.25565    1.000
    N3212    N        0.57907    0.24591    0.34919    1.000
    N3213    N        0.62040    0.19539    0.34002    1.000
    N3214    N        0.72421    0.21841    0.31722    1.000
    Si3215   Si       0.64107    0.21872    0.25637    1.000
    Si3216   Si       0.71667    0.20600    0.25285    1.000
    Si3217   Si       0.64716    0.21590    0.36757    1.000
    N3218    N        0.68327    0.23661    0.25432    1.000
    N3219    N        0.68448    0.19230    0.35956    1.000
    N3220    N        0.62053    0.24460    0.28645    1.000
    Si3221   Si       0.51009    0.19560    0.47994    1.000
    Si3222   Si       0.59391    0.21600    0.42576    1.000
    N3223    N        0.50840    0.22462    0.44877    1.000
    N3224    N        0.56494    0.19643    0.40343    1.000
    N3225    N        0.55492    0.19325    0.48530    1.000
    N3226    N        0.61601    0.19784    0.46086    1.000
    N3227    N        0.71928    0.23641    0.38955    1.000
    Si3228   Si       0.65451    0.20740    0.44511    1.000
    N3229    N        0.67827    0.22402    0.47726    1.000
    N3230    N        0.63226    0.21995    0.40708    1.000
    Si3231   Si       0.70962    0.19304    0.39552    1.000
    Si3232   Si       0.55477    0.22303    0.51749    1.000
    N3233    N        0.57600    0.19974    0.54855    1.000
    Si3234   Si       0.55220    0.20899    0.58382    1.000
    N3235    N        0.50995    0.21546    0.51964    1.000
    N3236    N        0.56417    0.22418    0.62274    1.000
    Si3237   Si       0.64458    0.19572    0.61425    1.000
    N3238    N        0.65024    0.20371    0.53815    1.000
    Si3239   Si       0.72330    0.21890    0.60833    1.000
    N3240    N        0.63141    0.23496    0.60081    1.000
    Si3241   Si       0.67721    0.19016    0.50835    1.000
    N3242    N        0.68727    0.19299    0.60593    1.000
    Si3243   Si       0.65134    0.24094    0.56379    1.000
    N3244    N        0.71888    0.18625    0.52183    1.000
    Si3245   Si       0.53042    0.23786    0.64828    1.000
    N3246    N        0.60037    0.20992    0.71799    1.000
    N3247    N        0.53823    0.22798    0.68978    1.000
    Si3248   Si       0.52397    0.20269    0.72159    1.000
    N3249    N        0.49666    0.20992    0.63979    1.000
    Si3250   Si       0.57787    0.24248    0.70073    1.000
    Si3251   Si       0.69903    0.24380    0.71498    1.000
    Si3252   Si       0.63765    0.20533    0.69521    1.000
    N3253    N        0.72096    0.20764    0.70430    1.000
    N3254    N        0.66085    0.24284    0.69364    1.000
    N3255    N        0.63756    0.18442    0.65522    1.000
    N3256    N        0.57080    0.21467    0.78225    1.000
    Si3257   Si       0.59826    0.22331    0.81526    1.000
    N3258    N        0.51047    0.22151    0.82479    1.000
    Si3259   Si       0.53759    0.22811    0.85629    1.000
    Si3260   Si       0.53159    0.23348    0.78688    1.000
    N3261    N        0.50590    0.22637    0.75229    1.000
    Si3262   Si       0.58402    0.18814    0.75158    1.000
    N3263    N        0.60192    0.18848    0.83813    1.000
    Si3264   Si       0.67426    0.22549    0.78876    1.000
    N3265    N        0.54495    0.19463    0.87875    1.000
    Si3266   Si       0.52499    0.19163    0.91702    1.000
    Si3267   Si       0.51838    0.20469    0.98567    1.000
    N3268    N        0.54470    0.20949    0.95111    1.000
    N3269    N        0.60714    0.22235    0.91841    1.000
    Si3270   Si       0.57701    0.23899    0.94585    1.000
    N3271    N        0.60143    0.23688    0.98153    1.000
    N3272    N        0.71778    0.21069    0.88419    1.000
    N3273    N        0.66697    0.23420    0.95127    1.000
    N3274    N        0.65716    0.19022    0.89784    1.000
    Si3275   Si       0.63722    0.21480    0.97610    1.000
    Si3276   Si       0.64808    0.23729    0.91058    1.000
    N3277    N        0.72398    0.23722    0.98960    1.000
    N3278    N        0.52322    0.28488    0.06296    1.000
    N3279    N        0.58890    0.26254    0.05810    1.000
    N3280    N        0.56468    0.29266    0.00742    1.000
    Si3281   Si       0.56350    0.29728    0.05061    1.000
    Si3282   Si       0.51479    0.24315    0.05300    1.000
    Si3283   Si       0.62453    0.27253    0.08097    1.000
    N3284    N        0.70936    0.28039    0.05547    1.000
    N3285    N        0.68843    0.26223    0.11556    1.000
    N3286    N        0.66687    0.28231    0.99961    1.000
    Si3287   Si       0.69479    0.24507    0.07461    1.000
    Si3288   Si       0.67337    0.30062    0.04021    1.000
    N3289    N        0.61857    0.26649    0.12288    1.000
    N3290    N        0.65147    0.24324    0.06557    1.000
    N3291    N        0.51550    0.26764    0.17222    1.000
    Si3292   Si       0.59792    0.28538    0.15726    1.000
    N3293    N        0.57857    0.25469    0.18289    1.000
    Si3294   Si       0.58082    0.25920    0.22553    1.000
    N3295    N        0.61227    0.28538    0.23675    1.000
    N3296    N        0.67995    0.29772    0.22239    1.000
    Si3297   Si       0.72552    0.26204    0.13707    1.000
    N3298    N        0.64535    0.24883    0.18049    1.000
    Si3299   Si       0.64324    0.28581    0.20372    1.000
    Si3300   Si       0.65398    0.24590    0.13688    1.000
    Si3301   Si       0.58112    0.28941    0.34808    1.000
    Si3302   Si       0.51138    0.28744    0.36503    1.000
    N3303    N        0.54142    0.29864    0.33538    1.000
    N3304    N        0.54170    0.27285    0.24674    1.000
    N3305    N        0.61142    0.30269    0.31856    1.000
    N3306    N        0.66453    0.29530    0.28778    1.000
    N3307    N        0.66088    0.25259    0.34643    1.000
    Si3308   Si       0.69353    0.27847    0.25895    1.000
    Si3309   Si       0.62308    0.28770    0.27908    1.000
    N3310    N        0.70793    0.29077    0.34307    1.000
    Si3311   Si       0.65647    0.29346    0.33144    1.000
    N3312    N        0.73394    0.28876    0.26840    1.000
    Si3313   Si       0.70463    0.24620    0.34739    1.000
    Si3314   Si       0.73938    0.29699    0.31169    1.000
    Si3315   Si       0.53256    0.25490    0.43007    1.000
    N3316    N        0.57514    0.25451    0.43610    1.000
    N3317    N        0.52851    0.28938    0.45848    1.000
    Si3318   Si       0.56848    0.27705    0.47251    1.000
    N3319    N        0.52765    0.25459    0.38828    1.000
    Si3320   Si       0.49776    0.30341    0.48506    1.000
    N3321    N        0.67354    0.29395    0.47654    1.000
    Si3322   Si       0.70066    0.25793    0.48293    1.000
    Si3323   Si       0.72855    0.27149    0.41481    1.000
    N3324    N        0.73386    0.25855    0.45573    1.000
    Si3325   Si       0.54417    0.28294    0.59489    1.000
    N3326    N        0.58654    0.29193    0.60548    1.000
    N3327    N        0.57403    0.25955    0.51089    1.000
    Si3328   Si       0.60682    0.28818    0.52013    1.000
    N3329    N        0.50301    0.28200    0.52215    1.000
    N3330    N        0.53591    0.24740    0.57179    1.000
    Si3331   Si       0.49834    0.24763    0.54613    1.000
    N3332    N        0.64355    0.27287    0.53582    1.000
    N3333    N        0.71392    0.27406    0.52395    1.000
    N3334    N        0.68925    0.25570    0.58120    1.000
    Si3335   Si       0.73023    0.26654    0.56360    1.000
    Si3336   Si       0.67460    0.29782    0.52129    1.000
    Si3337   Si       0.69060    0.27725    0.61895    1.000
    Si3338   Si       0.59742    0.25183    0.62344    1.000
    N3339    N        0.52930    0.28005    0.63983    1.000
    N3340    N        0.57562    0.27781    0.72608    1.000
    N3341    N        0.60112    0.25417    0.66624    1.000
    N3342    N        0.71993    0.25133    0.63689    1.000
    Si3343   Si       0.63749    0.27659    0.67739    1.000
    N3344    N        0.72136    0.27917    0.70261    1.000
    N3345    N        0.65603    0.29074    0.64184    1.000
    N3346    N        0.53637    0.27565    0.78456    1.000
    Si3347   Si       0.56134    0.29268    0.82961    1.000
    Si3348   Si       0.56759    0.29655    0.76456    1.000
    N3349    N        0.57037    0.24999    0.83731    1.000
    N3350    N        0.59229    0.29748    0.79859    1.000
    Si3351   Si       0.49911    0.29748    0.79487    1.000
    Si3352   Si       0.70590    0.27827    0.78368    1.000
    Si3353   Si       0.63398    0.28424    0.81073    1.000
    Si3354   Si       0.70807    0.24769    0.86241    1.000
    N3355    N        0.71047    0.24745    0.81681    1.000
    N3356    N        0.69155    0.24775    0.75665    1.000
    N3357    N        0.63669    0.24129    0.80470    1.000
    N3358    N        0.66964    0.30173    0.79080    1.000
    N3359    N        0.55436    0.27425    0.93669    1.000
    N3360    N        0.51549    0.25884    0.88192    1.000
    Si3361   Si       0.53807    0.29042    0.89934    1.000
    Si3362   Si       0.69313    0.26175    0.97258    1.000
    N3363    N        0.66708    0.25382    0.87602    1.000
    N3364    N        0.70547    0.29714    0.95272    1.000
    N3365    N        0.73056    0.27619    0.88508    1.000
    Si3366   Si       0.65392    0.29360    0.88053    1.000
    N3367    N        0.63060    0.28842    0.91603    1.000
    N3368    N        0.58034    0.32869    0.07500    1.000
    Si3369   Si       0.49996    0.31966    0.05183    1.000
    Si3370   Si       0.57009    0.33716    0.11557    1.000
    N3371    N        0.52703    0.35087    0.03811    1.000
    N3372    N        0.60933    0.35903    0.11965    1.000
    Si3373   Si       0.62087    0.34880    0.07517    1.000
    N3374    N        0.72021    0.34186    0.08212    1.000
    N3375    N        0.68833    0.33802    0.02485    1.000
    N3376    N        0.64423    0.31092    0.06878    1.000
    Si3377   Si       0.52732    0.30983    0.17134    1.000
    N3378    N        0.49932    0.33566    0.15171    1.000
    N3379    N        0.54151    0.32863    0.20922    1.000
    N3380    N        0.56283    0.30712    0.14557    1.000
    N3381    N        0.73868    0.30453    0.14282    1.000
    N3382    N        0.62743    0.31316    0.17449    1.000
    Si3383   Si       0.63840    0.34787    0.15061    1.000
    N3384    N        0.68249    0.35301    0.14552    1.000
    Si3385   Si       0.71847    0.33908    0.12557    1.000
    Si3386   Si       0.53378    0.33960    0.32175    1.000
    N3387    N        0.54397    0.34308    0.27922    1.000
    N3388    N        0.49126    0.34751    0.32074    1.000
    Si3389   Si       0.52853    0.31392    0.24905    1.000
    N3390    N        0.65897    0.32915    0.36013    1.000
    Si3391   Si       0.69932    0.32067    0.37498    1.000
    N3392    N        0.58822    0.31551    0.38199    1.000
    Si3393   Si       0.55396    0.34264    0.39181    1.000
    N3394    N        0.51393    0.32418    0.38895    1.000
    Si3395   Si       0.60187    0.34320    0.45517    1.000
    N3396    N        0.59851    0.30810    0.47945    1.000
    N3397    N        0.57212    0.36196    0.42766    1.000
    N3398    N        0.69790    0.30458    0.41459    1.000
    Si3399   Si       0.62304    0.33867    0.38604    1.000
    Si3400   Si       0.67111    0.32211    0.44340    1.000
    N3401    N        0.68512    0.36208    0.45615    1.000
    N3402    N        0.63428    0.33393    0.42694    1.000
    Si3403   Si       0.59850    0.32962    0.58711    1.000
    N3404    N        0.52683    0.31635    0.57477    1.000
    N3405    N        0.60502    0.32341    0.54585    1.000
    N3406    N        0.50547    0.34165    0.50536    1.000
    Si3407   Si       0.49667    0.32099    0.54286    1.000
    Si3408   Si       0.52438    0.35837    0.59071    1.000
    N3409    N        0.73782    0.35732    0.56585    1.000
    N3410    N        0.67253    0.34044    0.53003    1.000
    N3411    N        0.63146    0.35168    0.60553    1.000
    Si3412   Si       0.63195    0.35344    0.53044    1.000
    N3413    N        0.69864    0.32123    0.61130    1.000
    Si3414   Si       0.73952    0.32872    0.59842    1.000
    Si3415   Si       0.58528    0.31967    0.71049    1.000
    N3416    N        0.56295    0.33511    0.67909    1.000
    Si3417   Si       0.52777    0.31990    0.65923    1.000
    N3418    N        0.51011    0.35113    0.63320    1.000
    N3419    N        0.49075    0.32051    0.68443    1.000
    N3420    N        0.66740    0.35946    0.66602    1.000
    N3421    N        0.68426    0.33748    0.73075    1.000
    Si3422   Si       0.64956    0.34786    0.70554    1.000
    Si3423   Si       0.72490    0.31661    0.72455    1.000
    Si3424   Si       0.66087    0.33415    0.63185    1.000
    N3425    N        0.62633    0.31335    0.69905    1.000
    Si3426   Si       0.50201    0.33699    0.86086    1.000
    N3427    N        0.52220    0.31647    0.82870    1.000
    Si3428   Si       0.60316    0.33693    0.86521    1.000
    N3429    N        0.56792    0.33689    0.74932    1.000
    Si3430   Si       0.67657    0.34228    0.77300    1.000
    N3431    N        0.63226    0.30696    0.84858    1.000
    N3432    N        0.64007    0.36375    0.77809    1.000
    N3433    N        0.73818    0.30183    0.76614    1.000
    N3434    N        0.56960    0.30875    0.87240    1.000
    Si3435   Si       0.49407    0.34212    0.93837    1.000
    N3436    N        0.52600    0.33650    0.96876    1.000
    N3437    N        0.50812    0.32189    0.90060    1.000
    N3438    N        0.58941    0.32895    0.95444    1.000
    Si3439   Si       0.55682    0.30458    0.96819    1.000
    Si3440   Si       0.68965    0.32879    0.98022    1.000
    N3441    N        0.62526    0.35379    0.89826    1.000
    Si3442   Si       0.62620    0.32718    0.93506    1.000
    Si3443   Si       0.71566    0.30565    0.91198    1.000
    N3444    N        0.68426    0.32179    0.88938    1.000
    N3445    N        0.65504    0.34502    0.96056    1.000
    N3446    N        0.60462    0.37739    0.04449    1.000
    Si3447   Si       0.55882    0.37322    0.05873    1.000
    N3448    N        0.54268    0.36655    0.10165    1.000
    N3449    N        0.54863    0.41634    0.04885    1.000
    Si3450   Si       0.51472    0.36653    0.00060    1.000
    Si3451   Si       0.50208    0.35984    0.11429    1.000
    Si3452   Si       0.62681    0.41035    0.02846    1.000
    N3453    N        0.65684    0.37588    0.08076    1.000
    N3454    N        0.71771    0.39765    0.03644    1.000
    Si3455   Si       0.64928    0.41482    0.09791    1.000
    Si3456   Si       0.69411    0.36770    0.05887    1.000
    N3457    N        0.66111    0.40682    0.99746    1.000
    N3458    N        0.68651    0.42033    0.12165    1.000
    N3459    N        0.49062    0.40076    0.12457    1.000
    N3460    N        0.55747    0.38955    0.16379    1.000
    N3461    N        0.51554    0.39267    0.22205    1.000
    Si3462   Si       0.54895    0.37192    0.20329    1.000
    Si3463   Si       0.59784    0.39367    0.14643    1.000
    N3464    N        0.58062    0.38815    0.22894    1.000
    Si3465   Si       0.52980    0.41740    0.14123    1.000
    N3466    N        0.65325    0.38838    0.24400    1.000
    N3467    N        0.62750    0.38294    0.17669    1.000
    Si3468   Si       0.69477    0.40230    0.23321    1.000
    Si3469   Si       0.62253    0.40187    0.21599    1.000
    Si3470   Si       0.70114    0.39404    0.15187    1.000
    N3471    N        0.70987    0.40704    0.19241    1.000
    Si3472   Si       0.59049    0.38783    0.34304    1.000
    Si3473   Si       0.57026    0.37867    0.27040    1.000
    N3474    N        0.60105    0.38237    0.30090    1.000
    N3475    N        0.50147    0.41319    0.33188    1.000
    N3476    N        0.55705    0.36218    0.35106    1.000
    N3477    N        0.55233    0.41897    0.27967    1.000
    N3478    N        0.72125    0.37690    0.25443    1.000
    Si3479   Si       0.64085    0.39225    0.28521    1.000
    N3480    N        0.67203    0.37336    0.31046    1.000
    Si3481   Si       0.66975    0.37506    0.35483    1.000
    Si3482   Si       0.71391    0.37214    0.29833    1.000
    N3483    N        0.72968    0.41021    0.31509    1.000
    N3484    N        0.62243    0.38101    0.37148    1.000
    N3485    N        0.51719    0.39678    0.45568    1.000
    Si3486   Si       0.55687    0.40292    0.43770    1.000
    Si3487   Si       0.51252    0.41769    0.37451    1.000
    Si3488   Si       0.74020    0.39374    0.39126    1.000
    N3489    N        0.62089    0.36847    0.48689    1.000
    Si3490   Si       0.64063    0.41816    0.38904    1.000
    N3491    N        0.64349    0.41186    0.43159    1.000
    Si3492   Si       0.65417    0.38963    0.46793    1.000
    N3493    N        0.70898    0.36392    0.37598    1.000
    Si3494   Si       0.72722    0.37197    0.46254    1.000
    Si3495   Si       0.56854    0.39877    0.56305    1.000
    N3496    N        0.52860    0.40252    0.57781    1.000
    Si3497   Si       0.59850    0.40227    0.50804    1.000
    N3498    N        0.55675    0.38890    0.52019    1.000
    Si3499   Si       0.51956    0.38262    0.49938    1.000
    N3500    N        0.56949    0.36223    0.59053    1.000
    N3501    N        0.61337    0.38804    0.54964    1.000
    Si3502   Si       0.69325    0.41817    0.59991    1.000
    Si3503   Si       0.62460    0.39387    0.59209    1.000
    N3504    N        0.68618    0.40248    0.56081    1.000
    Si3505   Si       0.70599    0.36701    0.54080    1.000
    N3506    N        0.72496    0.38354    0.50542    1.000
    N3507    N        0.65353    0.41733    0.61683    1.000
    N3508    N        0.54061    0.39071    0.71764    1.000
    Si3509   Si       0.57277    0.37813    0.68967    1.000
    N3510    N        0.57261    0.40707    0.65971    1.000
    Si3511   Si       0.51048    0.42106    0.72561    1.000
    N3512    N        0.61169    0.37284    0.71195    1.000
    N3513    N        0.71527    0.39933    0.63156    1.000
    Si3514   Si       0.69295    0.39306    0.66872    1.000
    N3515    N        0.72299    0.40298    0.70059    1.000
    N3516    N        0.51288    0.38109    0.86164    1.000
    Si3517   Si       0.51793    0.40334    0.82456    1.000
    N3518    N        0.51653    0.37928    0.78867    1.000
    N3519    N        0.58017    0.40287    0.76556    1.000
    N3520    N        0.59761    0.37056    0.83860    1.000
    Si3521   Si       0.54918    0.37353    0.75929    1.000
    Si3522   Si       0.59086    0.41359    0.84068    1.000
    Si3523   Si       0.70539    0.39022    0.82538    1.000
    N3524    N        0.67035    0.37678    0.84525    1.000
    Si3525   Si       0.63485    0.37586    0.81916    1.000
    Si3526   Si       0.61892    0.39196    0.75210    1.000
    N3527    N        0.70870    0.36604    0.78817    1.000
    N3528    N        0.49317    0.38362    0.92737    1.000
    N3529    N        0.54842    0.39242    0.98696    1.000
    N3530    N        0.56416    0.38128    0.91620    1.000
    Si3531   Si       0.52571    0.39880    0.90100    1.000
    Si3532   Si       0.60433    0.39348    0.90799    1.000
    Si3533   Si       0.56019    0.36472    0.95552    1.000
    N3534    N        0.68800    0.38629    0.91846    1.000
    Si3535   Si       0.66285    0.38617    0.95645    1.000
    Si3536   Si       0.72839    0.37290    0.93195    1.000
    Si3537   Si       0.66878    0.36225    0.88595    1.000
    N3538    N        0.62521    0.40457    0.94309    1.000
    N3539    N        0.71523    0.36336    0.97271    1.000
    Si3540   Si       0.53638    0.45152    0.07149    1.000
    N3541    N        0.60059    0.43316    0.00412    1.000
    Si3542   Si       0.55782    0.42975    0.00826    1.000
    N3543    N        0.54921    0.44464    0.11318    1.000
    N3544    N        0.49639    0.46764    0.06890    1.000
    N3545    N        0.64362    0.43557    0.06030    1.000
    N3546    N        0.69466    0.46636    0.03045    1.000
    Si3547   Si       0.69692    0.42887    0.01119    1.000
    Si3548   Si       0.70747    0.45749    0.11322    1.000
    Si3549   Si       0.65943    0.47586    0.05467    1.000
    Si3550   Si       0.58903    0.45906    0.12321    1.000
    N3551    N        0.58655    0.47307    0.16747    1.000
    N3552    N        0.54913    0.46381    0.22464    1.000
    N3553    N        0.51416    0.44372    0.17235    1.000
    Si3554   Si       0.53061    0.42845    0.24005    1.000
    Si3555   Si       0.54595    0.47406    0.18157    1.000
    N3556    N        0.62903    0.44588    0.21761    1.000
    N3557    N        0.73788    0.45436    0.14601    1.000
    N3558    N        0.61446    0.42450    0.12178    1.000
    Si3559   Si       0.51555    0.43672    0.30007    1.000
    N3560    N        0.58118    0.43043    0.34176    1.000
    Si3561   Si       0.58955    0.43720    0.29909    1.000
    N3562    N        0.51722    0.47631    0.31505    1.000
    N3563    N        0.49491    0.44097    0.26195    1.000
    Si3564   Si       0.70752    0.43665    0.34053    1.000
    Si3565   Si       0.72104    0.46323    0.27517    1.000
    N3566    N        0.63085    0.43630    0.28677    1.000
    N3567    N        0.70094    0.46981    0.31336    1.000
    Si3568   Si       0.65119    0.45786    0.25455    1.000
    N3569    N        0.69232    0.44298    0.25062    1.000
    N3570    N        0.67200    0.41924    0.36024    1.000
    Si3571   Si       0.57686    0.45417    0.37714    1.000
    N3572    N        0.49642    0.45724    0.38094    1.000
    Si3573   Si       0.57385    0.46281    0.48755    1.000
    N3574    N        0.54874    0.42516    0.39992    1.000
    N3575    N        0.58599    0.42131    0.46564    1.000
    Si3576   Si       0.52317    0.47253    0.41349    1.000
    N3577    N        0.54853    0.47401    0.45206    1.000
    Si3578   Si       0.62561    0.44091    0.45971    1.000
    N3579    N        0.64833    0.42468    0.49412    1.000
    N3580    N        0.72087    0.47695    0.43106    1.000
    N3581    N        0.62131    0.45689    0.38734    1.000
    N3582    N        0.73653    0.43489    0.37205    1.000
    N3583    N        0.58731    0.44252    0.52527    1.000
    Si3584   Si       0.60205    0.45803    0.56099    1.000
    N3585    N        0.59280    0.42788    0.59233    1.000
    N3586    N        0.51227    0.48065    0.57376    1.000
    N3587    N        0.71118    0.45131    0.52312    1.000
    N3588    N        0.70058    0.46129    0.59627    1.000
    N3589    N        0.64645    0.46144    0.55528    1.000
    Si3590   Si       0.66904    0.43207    0.53270    1.000
    Si3591   Si       0.57865    0.44040    0.63527    1.000
    N3592    N        0.51814    0.45631    0.69959    1.000
    N3593    N        0.54596    0.46769    0.63085    1.000
    Si3594   Si       0.51694    0.47345    0.66115    1.000
    N3595    N        0.61093    0.46463    0.65159    1.000
    Si3596   Si       0.54046    0.48006    0.73216    1.000
    N3597    N        0.73566    0.46324    0.66207    1.000
    Si3598   Si       0.65601    0.44852    0.71721    1.000
    Si3599   Si       0.72049    0.44672    0.69993    1.000
    N3600    N        0.66661    0.42795    0.67934    1.000
    N3601    N        0.69204    0.47083    0.72240    1.000
    Si3602   Si       0.65218    0.45259    0.64525    1.000
    Si3603   Si       0.55983    0.44024    0.78146    1.000
    N3604    N        0.51881    0.44605    0.76236    1.000
    N3605    N        0.55427    0.42888    0.82219    1.000
    N3606    N        0.57470    0.47409    0.75937    1.000
    Si3607   Si       0.65621    0.44180    0.79181    1.000
    Si3608   Si       0.72680    0.46078    0.81089    1.000
    N3609    N        0.69424    0.43119    0.81071    1.000
    N3610    N        0.64590    0.42459    0.75207    1.000
    N3611    N        0.62658    0.42214    0.81633    1.000
    N3612    N        0.53124    0.44027    0.90356    1.000
    N3613    N        0.59246    0.46513    0.94082    1.000
    Si3614   Si       0.57114    0.45801    0.90317    1.000
    N3615    N        0.59462    0.42636    0.88062    1.000
    Si3616   Si       0.49455    0.46586    0.90117    1.000
    N3617    N        0.53313    0.46322    0.99929    1.000
    N3618    N        0.65183    0.46856    0.96024    1.000
    Si3619   Si       0.61874    0.43979    0.96519    1.000
    N3620    N        0.71857    0.43822    0.97288    1.000
    Si3621   Si       0.69467    0.46951    0.95061    1.000
    Si3622   Si       0.59187    0.51099    0.06327    1.000
    N3623    N        0.60100    0.49748    0.10377    1.000
    Si3624   Si       0.53767    0.49961    0.02064    1.000
    N3625    N        0.50128    0.52470    0.02942    1.000
    Si3626   Si       0.49693    0.51375    0.07192    1.000
    N3627    N        0.55840    0.48518    0.05585    1.000
    N3628    N        0.52136    0.53483    0.10050    1.000
    N3629    N        0.56585    0.52370    0.00044    1.000
    N3630    N        0.63064    0.50573    0.04403    1.000
    Si3631   Si       0.68617    0.52604    0.10148    1.000
    N3632    N        0.70413    0.52662    0.06242    1.000
    Si3633   Si       0.72684    0.48972    0.05020    1.000
    N3634    N        0.67505    0.48365    0.09630    1.000
    N3635    N        0.51465    0.50294    0.18023    1.000
    N3636    N        0.60558    0.50976    0.22805    1.000
    Si3637   Si       0.61882    0.48458    0.19457    1.000
    Si3638   Si       0.61842    0.52736    0.13197    1.000
    Si3639   Si       0.67859    0.53602    0.16621    1.000
    N3640    N        0.70834    0.52299    0.13757    1.000
    N3641    N        0.64006    0.51443    0.16815    1.000
    N3642    N        0.69438    0.52178    0.20566    1.000
    Si3643   Si       0.73279    0.50713    0.21563    1.000
    Si3644   Si       0.54787    0.50419    0.30123    1.000
    N3645    N        0.54495    0.52569    0.26223    1.000
    N3646    N        0.56247    0.52734    0.33475    1.000
    N3647    N        0.50142    0.52172    0.36311    1.000
    Si3648   Si       0.60445    0.53501    0.32829    1.000
    Si3649   Si       0.48996    0.48291    0.34605    1.000
    N3650    N        0.57964    0.47839    0.28586    1.000
    Si3651   Si       0.56966    0.49327    0.24620    1.000
    N3652    N        0.63317    0.50188    0.33504    1.000
    Si3653   Si       0.66905    0.49943    0.31211    1.000
    N3654    N        0.65554    0.49927    0.26843    1.000
    N3655    N        0.72927    0.50617    0.26049    1.000
    Si3656   Si       0.63050    0.53090    0.25488    1.000
    Si3657   Si       0.54282    0.52926    0.37383    1.000
    N3658    N        0.49331    0.49591    0.43483    1.000
    N3659    N        0.55777    0.49058    0.39214    1.000
    Si3660   Si       0.58436    0.50086    0.43023    1.000
    Si3661   Si       0.51940    0.50101    0.47172    1.000
    N3662    N        0.61310    0.48065    0.45976    1.000
    N3663    N        0.58682    0.53696    0.45926    1.000
    N3664    N        0.67148    0.51399    0.47689    1.000
    Si3665   Si       0.63497    0.52117    0.45192    1.000
    N3666    N        0.73430    0.51163    0.49369    1.000
    Si3667   Si       0.64236    0.49297    0.37740    1.000
    Si3668   Si       0.71059    0.50905    0.45920    1.000
    N3669    N        0.68171    0.51109    0.37423    1.000
    Si3670   Si       0.71974    0.50757    0.39564    1.000
    N3671    N        0.62251    0.51754    0.40728    1.000
    N3672    N        0.71515    0.53951    0.42733    1.000
    Si3673   Si       0.54612    0.49412    0.59694    1.000
    N3674    N        0.58522    0.49434    0.57423    1.000
    N3675    N        0.55395    0.49831    0.50895    1.000
    Si3676   Si       0.51604    0.49840    0.53621    1.000
    Si3677   Si       0.58558    0.53004    0.50586    1.000
    N3678    N        0.53909    0.53578    0.60708    1.000
    Si3679   Si       0.61293    0.52724    0.56890    1.000
    N3680    N        0.49078    0.48676    0.50202    1.000
    N3681    N        0.62366    0.52853    0.52619    1.000
    N3682    N        0.73122    0.51882    0.60890    1.000
    N3683    N        0.69614    0.51473    0.54722    1.000
    N3684    N        0.64891    0.51762    0.59406    1.000
    Si3685   Si       0.67420    0.48789    0.57508    1.000
    Si3686   Si       0.73023    0.48984    0.53067    1.000
    Si3687   Si       0.66645    0.53035    0.51642    1.000
    Si3688   Si       0.60516    0.49513    0.68161    1.000
    N3689    N        0.50200    0.51433    0.66562    1.000
    N3690    N        0.51096    0.51243    0.73843    1.000
    N3691    N        0.56546    0.49668    0.69624    1.000
    N3692    N        0.61275    0.53148    0.66108    1.000
    N3693    N        0.73391    0.52621    0.72582    1.000
    N3694    N        0.67305    0.49039    0.64723    1.000
    Si3695   Si       0.71319    0.48471    0.63056    1.000
    N3696    N        0.62676    0.47987    0.71548    1.000
    Si3697   Si       0.65184    0.52794    0.63705    1.000
    Si3698   Si       0.50821    0.53058    0.77813    1.000
    N3699    N        0.49670    0.50023    0.80618    1.000
    N3700    N        0.60776    0.52265    0.83435    1.000
    Si3701   Si       0.61462    0.49182    0.75516    1.000
    N3702    N        0.61324    0.53557    0.75980    1.000
    Si3703   Si       0.67517    0.50998    0.80656    1.000
    N3704    N        0.68459    0.50403    0.84886    1.000
    N3705    N        0.71309    0.49566    0.78931    1.000
    N3706    N        0.64513    0.48362    0.78647    1.000
    Si3707   Si       0.72291    0.49046    0.74692    1.000
    N3708    N        0.49442    0.50051    0.87603    1.000
    Si3709   Si       0.59779    0.52570    0.87653    1.000
    N3710    N        0.56453    0.49788    0.88782    1.000
    Si3711   Si       0.53092    0.52460    0.88769    1.000
    Si3712   Si       0.62311    0.49563    0.93950    1.000
    N3713    N        0.62394    0.53283    0.96013    1.000
    Si3714   Si       0.66886    0.51393    0.88913    1.000
    N3715    N        0.69723    0.48392    0.90844    1.000
    N3716    N        0.71698    0.50384    0.96903    1.000
    Si3717   Si       0.72043    0.49606    0.87501    1.000
    N3718    N        0.63021    0.50491    0.89904    1.000
    Si3719   Si       0.55724    0.55661    0.10358    1.000
    N3720    N        0.58359    0.55310    0.06926    1.000
    Si3721   Si       0.60098    0.58657    0.04612    1.000
    N3722    N        0.49487    0.59333    0.08293    1.000
    N3723    N        0.61689    0.57430    0.00825    1.000
    Si3724   Si       0.70563    0.55802    0.03169    1.000
    N3725    N        0.65431    0.55022    0.11903    1.000
    Si3726   Si       0.64770    0.59595    0.11288    1.000
    N3727    N        0.68558    0.55758    0.99184    1.000
    Si3728   Si       0.50131    0.54296    0.18923    1.000
    N3729    N        0.58461    0.55286    0.13923    1.000
    N3730    N        0.53662    0.56226    0.20441    1.000
    Si3731   Si       0.69098    0.56553    0.22004    1.000
    N3732    N        0.65242    0.56716    0.23785    1.000
    N3733    N        0.68500    0.57950    0.17908    1.000
    N3734    N        0.51031    0.58447    0.33963    1.000
    N3735    N        0.51558    0.59090    0.26824    1.000
    Si3736   Si       0.59706    0.59159    0.28645    1.000
    N3737    N        0.61270    0.55003    0.28948    1.000
    N3738    N        0.61181    0.56492    0.35706    1.000
    Si3739   Si       0.54400    0.56603    0.24647    1.000
    N3740    N        0.57650    0.59405    0.24799    1.000
    Si3741   Si       0.72369    0.54290    0.28292    1.000
    N3742    N        0.73302    0.56219    0.36117    1.000
    Si3743   Si       0.69151    0.55287    0.35241    1.000
    N3744    N        0.71894    0.57263    0.25324    1.000
    N3745    N        0.69119    0.53616    0.31174    1.000
    Si3746   Si       0.55436    0.56327    0.44237    1.000
    N3747    N        0.52445    0.54634    0.47077    1.000
    N3748    N        0.53845    0.56025    0.40357    1.000
    Si3749   Si       0.51860    0.59496    0.38277    1.000
    N3750    N        0.60239    0.59437    0.40929    1.000
    Si3751   Si       0.68669    0.57203    0.42150    1.000
    Si3752   Si       0.62736    0.56217    0.39799    1.000
    N3753    N        0.67003    0.58030    0.38180    1.000
    Si3754   Si       0.65922    0.59215    0.47403    1.000
    N3755    N        0.64970    0.56295    0.44182    1.000
    Si3756   Si       0.55191    0.56102    0.57326    1.000
    N3757    N        0.56412    0.55867    0.52912    1.000
    Si3758   Si       0.52516    0.56552    0.51061    1.000
    N3759    N        0.59550    0.56347    0.58295    1.000
    N3760    N        0.50514    0.54119    0.54082    1.000
    Si3761   Si       0.61204    0.59891    0.59970    1.000
    Si3762   Si       0.67853    0.59477    0.60933    1.000
    Si3763   Si       0.72492    0.53954    0.57063    1.000
    N3764    N        0.70009    0.57448    0.57878    1.000
    N3765    N        0.67068    0.57553    0.51275    1.000
    Si3766   Si       0.52197    0.54846    0.64485    1.000
    N3767    N        0.55056    0.57218    0.66654    1.000
    Si3768   Si       0.59336    0.56974    0.66877    1.000
    N3769    N        0.60135    0.58601    0.70744    1.000
    Si3770   Si       0.70848    0.56060    0.72671    1.000
    N3771    N        0.66785    0.56658    0.64096    1.000
    Si3772   Si       0.67594    0.58219    0.67919    1.000
    N3773    N        0.71874    0.58366    0.69137    1.000
    N3774    N        0.66666    0.55460    0.71438    1.000
    Si3775   Si       0.62932    0.56604    0.73514    1.000
    Si3776   Si       0.55644    0.57412    0.82195    1.000
    N3777    N        0.59724    0.58192    0.80979    1.000
    N3778    N        0.54602    0.55784    0.86072    1.000
    N3779    N        0.54023    0.55843    0.78340    1.000
    Si3780   Si       0.61747    0.54524    0.79980    1.000
    N3781    N        0.66194    0.55172    0.80342    1.000
    N3782    N        0.71091    0.58306    0.76191    1.000
    Si3783   Si       0.67898    0.58875    0.78941    1.000
    N3784    N        0.60117    0.56678    0.89706    1.000
    N3785    N        0.56766    0.58287    0.96756    1.000
    Si3786   Si       0.53057    0.57392    0.94856    1.000
    Si3787   Si       0.59106    0.55108    0.98303    1.000
    N3788    N        0.49905    0.58054    0.98049    1.000
    Si3789   Si       0.56397    0.58860    0.88834    1.000
    N3790    N        0.51922    0.53724    0.92723    1.000
    Si3791   Si       0.64186    0.58297    0.90743    1.000
    Si3792   Si       0.72503    0.54649    0.97345    1.000
    Si3793   Si       0.71735    0.56825    0.90138    1.000
    Si3794   Si       0.64616    0.56760    0.97917    1.000
    N3795    N        0.73401    0.57305    0.94150    1.000
    N3796    N        0.67592    0.55520    0.90294    1.000
    N3797    N        0.64704    0.59844    0.94830    1.000
    Si3798   Si       0.52011    0.62580    0.09827    1.000
    N3799    N        0.57535    0.61810    0.03046    1.000
    N3800    N        0.55378    0.59869    0.11153    1.000
    N3801    N        0.53231    0.65194    0.06718    1.000
    Si3802   Si       0.57137    0.65765    0.04919    1.000
    Si3803   Si       0.66758    0.62346    0.04629    1.000
    N3804    N        0.67156    0.63891    0.00328    1.000
    Si3805   Si       0.70327    0.65162    0.10048    1.000
    N3806    N        0.63633    0.60281    0.06760    1.000
    N3807    N        0.68575    0.61480    0.11777    1.000
    N3808    N        0.70277    0.59757    0.04533    1.000
    Si3809   Si       0.52615    0.63899    0.16942    1.000
    N3810    N        0.56412    0.61985    0.17787    1.000
    Si3811   Si       0.58256    0.62379    0.21923    1.000
    Si3812   Si       0.58118    0.59624    0.14554    1.000
    N3813    N        0.53195    0.65729    0.13058    1.000
    Si3814   Si       0.62889    0.64548    0.17283    1.000
    Si3815   Si       0.69435    0.61751    0.15991    1.000
    N3816    N        0.62538    0.63151    0.21389    1.000
    N3817    N        0.68721    0.62774    0.24272    1.000
    N3818    N        0.67234    0.65280    0.17181    1.000
    N3819    N        0.61993    0.61452    0.14231    1.000
    N3820    N        0.73647    0.62912    0.16629    1.000
    Si3821   Si       0.64790    0.60921    0.24318    1.000
    Si3822   Si       0.53016    0.60748    0.30724    1.000
    Si3823   Si       0.58862    0.60326    0.36085    1.000
    N3824    N        0.52221    0.65006    0.30645    1.000
    N3825    N        0.57133    0.60239    0.31752    1.000
    N3826    N        0.61725    0.63547    0.35604    1.000
    Si3827   Si       0.63910    0.64428    0.31596    1.000
    Si3828   Si       0.72725    0.61446    0.26014    1.000
    N3829    N        0.62942    0.62103    0.28244    1.000
    Si3830   Si       0.71662    0.63980    0.32854    1.000
    N3831    N        0.67485    0.62653    0.33067    1.000
    N3832    N        0.55044    0.62117    0.37603    1.000
    Si3833   Si       0.52475    0.63215    0.46860    1.000
    N3834    N        0.55690    0.60495    0.45765    1.000
    Si3835   Si       0.59577    0.61968    0.44279    1.000
    N3836    N        0.51993    0.65675    0.43190    1.000
    N3837    N        0.69335    0.60852    0.44741    1.000
    N3838    N        0.73069    0.63748    0.36934    1.000
    Si3839   Si       0.68688    0.65395    0.43507    1.000
    Si3840   Si       0.65867    0.62031    0.36964    1.000
    N3841    N        0.62659    0.62156    0.47285    1.000
    N3842    N        0.66017    0.64920    0.40222    1.000
    Si3843   Si       0.55014    0.63356    0.59146    1.000
    N3844    N        0.59246    0.63908    0.59458    1.000
    N3845    N        0.51451    0.60603    0.51265    1.000
    Si3846   Si       0.51602    0.64363    0.53341    1.000
    N3847    N        0.52827    0.59842    0.58157    1.000
    N3848    N        0.70410    0.63290    0.54070    1.000
    N3849    N        0.64920    0.61300    0.58033    1.000
    Si3850   Si       0.68004    0.59931    0.54849    1.000
    Si3851   Si       0.62504    0.65216    0.56800    1.000
    Si3852   Si       0.49038    0.64795    0.72402    1.000
    Si3853   Si       0.59416    0.62620    0.71921    1.000
    N3854    N        0.54315    0.63921    0.63389    1.000
    N3855    N        0.50324    0.63438    0.68228    1.000
    N3856    N        0.57071    0.64274    0.68718    1.000
    Si3857   Si       0.53940    0.61527    0.67181    1.000
    Si3858   Si       0.59045    0.64255    0.64486    1.000
    N3859    N        0.60229    0.60150    0.64154    1.000
    N3860    N        0.49918    0.61338    0.75031    1.000
    Si3861   Si       0.66722    0.65326    0.66346    1.000
    Si3862   Si       0.73425    0.64080    0.63013    1.000
    N3863    N        0.66138    0.61937    0.69142    1.000
    N3864    N        0.69174    0.62944    0.63304    1.000
    Si3865   Si       0.66133    0.63373    0.73335    1.000
    N3866    N        0.57311    0.62018    0.75612    1.000
    Si3867   Si       0.54222    0.64179    0.84451    1.000
    N3868    N        0.53697    0.61354    0.81186    1.000
    N3869    N        0.50259    0.64585    0.86102    1.000
    N3870    N        0.57558    0.62221    0.86372    1.000
    Si3871   Si       0.60662    0.61538    0.78513    1.000
    Si3872   Si       0.53616    0.60190    0.76991    1.000
    Si3873   Si       0.61719    0.63314    0.85567    1.000
    N3874    N        0.61357    0.64736    0.81382    1.000
    N3875    N        0.69505    0.65226    0.75456    1.000
    N3876    N        0.68496    0.62082    0.81713    1.000
    Si3877   Si       0.68938    0.62446    0.86020    1.000
    N3878    N        0.64181    0.60160    0.76092    1.000
    Si3879   Si       0.50054    0.63179    0.90205    1.000
    N3880    N        0.53471    0.63982    0.98001    1.000
    Si3881   Si       0.57484    0.62143    0.98627    1.000
    N3882    N        0.60575    0.65000    0.97486    1.000
    Si3883   Si       0.49458    0.62215    0.99135    1.000
    N3884    N        0.52979    0.60278    0.91298    1.000
    N3885    N        0.65015    0.60990    0.87404    1.000
    N3886    N        0.72253    0.60491    0.87815    1.000
    Si3887   Si       0.64681    0.63906    0.96580    1.000
    N3888    N        0.72803    0.63697    0.96115    1.000
    Si3889   Si       0.71106    0.65598    0.99526    1.000
    N3890    N        0.58289    0.69080    0.02319    1.000
    Si3891   Si       0.55423    0.68845    0.10899    1.000
    N3892    N        0.58983    0.67701    0.08535    1.000
    Si3893   Si       0.49465    0.67058    0.05865    1.000
    N3894    N        0.52566    0.71610    0.09014    1.000
    Si3895   Si       0.63561    0.68750    0.08123    1.000
    N3896    N        0.67102    0.66085    0.07102    1.000
    Si3897   Si       0.53938    0.68776    0.22435    1.000
    N3898    N        0.57673    0.66672    0.22980    1.000
    N3899    N        0.51396    0.66939    0.19795    1.000
    N3900    N        0.61679    0.68798    0.18025    1.000
    Si3901   Si       0.61199    0.71621    0.14976    1.000
    N3902    N        0.56923    0.71698    0.14144    1.000
    Si3903   Si       0.67610    0.69152    0.14828    1.000
    Si3904   Si       0.61626    0.68363    0.22524    1.000
    N3905    N        0.71138    0.68737    0.12414    1.000
    Si3906   Si       0.68718    0.66025    0.21392    1.000
    N3907    N        0.65988    0.68903    0.23079    1.000
    N3908    N        0.72295    0.68178    0.20776    1.000
    N3909    N        0.64124    0.69754    0.12150    1.000
    N3910    N        0.57372    0.69796    0.30864    1.000
    N3911    N        0.51343    0.70319    0.25805    1.000
    Si3912   Si       0.49613    0.68285    0.29224    1.000
    Si3913   Si       0.54424    0.67718    0.33371    1.000
    N3914    N        0.51165    0.70985    0.32437    1.000
    Si3915   Si       0.61144    0.71305    0.29480    1.000
    N3916    N        0.64588    0.68625    0.30711    1.000
    N3917    N        0.72120    0.67987    0.31432    1.000
    Si3918   Si       0.68505    0.70544    0.30889    1.000
    N3919    N        0.55106    0.68760    0.37418    1.000
    N3920    N        0.60000    0.69399    0.47904    1.000
    Si3921   Si       0.55127    0.65559    0.40274    1.000
    N3922    N        0.59189    0.65663    0.42096    1.000
    Si3923   Si       0.62060    0.66432    0.38904    1.000
    Si3924   Si       0.69131    0.70362    0.49225    1.000
    N3925    N        0.73102    0.65975    0.43494    1.000
    N3926    N        0.61569    0.70388    0.37560    1.000
    N3927    N        0.66726    0.67462    0.46802    1.000
    Si3928   Si       0.63079    0.66254    0.48772    1.000
    N3929    N        0.53336    0.66552    0.56558    1.000
    Si3930   Si       0.57433    0.68253    0.51335    1.000
    Si3931   Si       0.52954    0.70791    0.56629    1.000
    N3932    N        0.53994    0.66229    0.49884    1.000
    N3933    N        0.61054    0.65980    0.52897    1.000
    N3934    N        0.72269    0.69321    0.56919    1.000
    N3935    N        0.64667    0.68406    0.58247    1.000
    Si3936   Si       0.68152    0.70451    0.56776    1.000
    Si3937   Si       0.73361    0.66385    0.53740    1.000
    N3938    N        0.72884    0.68535    0.49899    1.000
    N3939    N        0.66496    0.71046    0.52701    1.000
    Si3940   Si       0.50373    0.66135    0.64580    1.000
    N3941    N        0.52395    0.67861    0.73262    1.000
    Si3942   Si       0.55135    0.68220    0.69763    1.000
    N3943    N        0.52671    0.69574    0.66373    1.000
    N3944    N        0.58467    0.70925    0.70452    1.000
    Si3945   Si       0.61627    0.69902    0.73322    1.000
    N3946    N        0.62673    0.66616    0.64931    1.000
    Si3947   Si       0.71864    0.69883    0.66032    1.000
    N3948    N        0.70499    0.66804    0.68778    1.000
    Si3949   Si       0.63858    0.70066    0.62261    1.000
    N3950    N        0.62405    0.65718    0.73048    1.000
    N3951    N        0.67821    0.69775    0.64083    1.000
    Si3952   Si       0.72354    0.66577    0.72626    1.000
    N3953    N        0.55124    0.68379    0.83621    1.000
    Si3954   Si       0.50388    0.70137    0.76294    1.000
    N3955    N        0.59491    0.70429    0.76983    1.000
    Si3956   Si       0.58647    0.69524    0.85950    1.000
    Si3957   Si       0.52012    0.70966    0.82327    1.000
    N3958    N        0.49350    0.68013    0.79930    1.000
    Si3959   Si       0.62065    0.68707    0.80136    1.000
    Si3960   Si       0.72335    0.69021    0.85634    1.000
    N3961    N        0.66343    0.69382    0.79508    1.000
    N3962    N        0.72803    0.67983    0.81388    1.000
    Si3963   Si       0.69243    0.66110    0.79696    1.000
    N3964    N        0.68549    0.66862    0.86694    1.000
    Si3965   Si       0.59794    0.69133    0.98066    1.000
    N3966    N        0.56272    0.70288    0.95566    1.000
    Si3967   Si       0.52660    0.67877    0.96107    1.000
    N3968    N        0.51085    0.66910    0.92220    1.000
    N3969    N        0.49930    0.69987    0.98663    1.000
    Si3970   Si       0.48898    0.70196    0.90042    1.000
    N3971    N        0.70274    0.69740    0.99372    1.000
    N3972    N        0.66103    0.66944    0.93701    1.000
    Si3973   Si       0.67564    0.70513    0.95927    1.000
    Si3974   Si       0.65474    0.68272    0.89529    1.000
    N3975    N        0.61675    0.66963    0.87745    1.000
    N3976    N        0.52990    0.74883    0.02620    1.000
    N3977    N        0.58361    0.75746    0.06585    1.000
    Si3978   Si       0.54037    0.75106    0.06748    1.000
    Si3979   Si       0.59771    0.73013    0.03698    1.000
    Si3980   Si       0.49989    0.74164    0.11371    1.000
    N3981    N        0.59222    0.75481    0.00088    1.000
    Si3982   Si       0.55364    0.77261    0.00030    1.000
    Si3983   Si       0.48829    0.73917    0.01222    1.000
    N3984    N        0.70346    0.75191    0.04207    1.000
    Si3985   Si       0.65984    0.75702    0.04665    1.000
    Si3986   Si       0.72804    0.72894    0.01202    1.000
    N3987    N        0.63683    0.71957    0.05172    1.000
    N3988    N        0.50288    0.73808    0.15549    1.000
    N3989    N        0.54898    0.73207    0.21377    1.000
    Si3990   Si       0.54511    0.74147    0.16985    1.000
    Si3991   Si       0.51032    0.74135    0.23979    1.000
    Si3992   Si       0.57987    0.74972    0.23847    1.000
    N3993    N        0.66354    0.76971    0.21882    1.000
    Si3994   Si       0.72377    0.72255    0.19481    1.000
    Si3995   Si       0.66050    0.76388    0.17556    1.000
    N3996    N        0.72583    0.75359    0.22330    1.000
    N3997    N        0.68599    0.72763    0.17246    1.000
    Si3998   Si       0.65985    0.73041    0.24341    1.000
    N3999    N        0.61929    0.75709    0.16297    1.000
    N4000    N        0.56196    0.74847    0.35026    1.000
    N4001    N        0.55732    0.75672    0.27695    1.000
    Si4002   Si       0.54716    0.73341    0.31240    1.000
    N4003    N        0.61393    0.72226    0.25081    1.000
    N4004    N        0.62359    0.74509    0.32124    1.000
    N4005    N        0.68896    0.73156    0.27535    1.000
    Si4006   Si       0.64435    0.73322    0.35663    1.000
    N4007    N        0.68634    0.72542    0.34717    1.000
    Si4008   Si       0.72754    0.73421    0.35825    1.000
    Si4009   Si       0.72995    0.74290    0.26590    1.000
    N4010    N        0.49187    0.75279    0.37286    1.000
    Si4011   Si       0.57725    0.72162    0.38051    1.000
    Si4012   Si       0.59771    0.72858    0.45659    1.000
    N4013    N        0.57795    0.75876    0.48197    1.000
    N4014    N        0.57379    0.73565    0.42124    1.000
    N4015    N        0.70265    0.74421    0.48137    1.000
    N4016    N        0.63886    0.74448    0.44948    1.000
    N4017    N        0.65034    0.76886    0.38115    1.000
    Si4018   Si       0.66822    0.76906    0.47331    1.000
    Si4019   Si       0.57136    0.75702    0.52455    1.000
    Si4020   Si       0.58369    0.75356    0.59661    1.000
    N4021    N        0.54767    0.72711    0.60005    1.000
    N4022    N        0.60305    0.75432    0.55662    1.000
    N4023    N        0.55768    0.71708    0.53370    1.000
    N4024    N        0.67094    0.74727    0.57770    1.000
    Si4025   Si       0.64563    0.74961    0.54268    1.000
    Si4026   Si       0.69539    0.76270    0.60732    1.000
    N4027    N        0.73428    0.74417    0.61466    1.000
    Si4028   Si       0.58290    0.75003    0.69329    1.000
    Si4029   Si       0.53081    0.73358    0.64200    1.000
    N4030    N        0.55595    0.76260    0.66186    1.000
    N4031    N        0.57435    0.76597    0.73436    1.000
    N4032    N        0.49173    0.75118    0.63806    1.000
    N4033    N        0.64952    0.72760    0.73746    1.000
    N4034    N        0.61716    0.73776    0.62292    1.000
    N4035    N        0.72975    0.72980    0.68563    1.000
    N4036    N        0.67881    0.76405    0.64759    1.000
    N4037    N        0.62343    0.76448    0.68692    1.000
    Si4038   Si       0.64862    0.76787    0.72098    1.000
    Si4039   Si       0.71093    0.76780    0.67702    1.000
    Si4040   Si       0.63617    0.77027    0.64555    1.000
    N4041    N        0.52793    0.73322    0.78507    1.000
    Si4042   Si       0.56862    0.73874    0.76988    1.000
    Si4043   Si       0.50032    0.76716    0.78647    1.000
    N4044    N        0.60944    0.71748    0.83040    1.000
    N4045    N        0.58510    0.77127    0.79758    1.000
    Si4046   Si       0.61775    0.75924    0.82227    1.000
    Si4047   Si       0.67252    0.73262    0.77632    1.000
    N4048    N        0.71049    0.75277    0.77055    1.000
    N4049    N        0.65709    0.75973    0.80518    1.000
    N4050    N        0.72207    0.77191    0.83264    1.000
    N4051    N        0.51515    0.73480    0.91737    1.000
    Si4052   Si       0.55892    0.73413    0.92778    1.000
    Si4053   Si       0.50480    0.76745    0.94227    1.000
    N4054    N        0.57483    0.72461    0.88889    1.000
    N4055    N        0.60017    0.75707    0.93187    1.000
    N4056    N        0.54402    0.77402    0.95807    1.000
    Si4057   Si       0.61253    0.74695    0.89109    1.000
    Si4058   Si       0.73665    0.77559    0.87444    1.000
    N4059    N        0.70483    0.72416    0.93121    1.000
    N4060    N        0.74161    0.72759    0.87165    1.000
    Si4061   Si       0.62696    0.76015    0.97000    1.000
    Si4062   Si       0.67889    0.75327    0.91189    1.000
    N4063    N        0.64862    0.72630    0.89625    1.000
    N4064    N        0.72842    0.76198    0.98171    1.000
    N4065    N        0.63496    0.71402    0.97526    1.000
    N4066    N        0.58152    0.81466    0.10334    1.000
    N4067    N        0.53583    0.81235    0.01189    1.000
    N4068    N        0.60238    0.81757    0.03868    1.000
    Si4069   Si       0.60449    0.79360    0.07379    1.000
    N4070    N        0.51773    0.77698    0.09542    1.000
    Si4071   Si       0.49202    0.81093    0.01724    1.000
    Si4072   Si       0.62962    0.81662    0.00564    1.000
    N4073    N        0.70950    0.81205    0.08682    1.000
    Si4074   Si       0.67047    0.80644    0.10875    1.000
    N4075    N        0.64792    0.78193    0.08063    1.000
    N4076    N        0.65432    0.78154    0.01205    1.000
    Si4077   Si       0.72771    0.77731    0.06843    1.000
    N4078    N        0.70926    0.82081    0.99338    1.000
    Si4079   Si       0.54195    0.80474    0.12284    1.000
    Si4080   Si       0.59176    0.78963    0.17738    1.000
    N4081    N        0.58783    0.78949    0.22146    1.000
    N4082    N        0.55330    0.78325    0.15941    1.000
    N4083    N        0.60717    0.82815    0.16331    1.000
    Si4084   Si       0.69982    0.78898    0.23060    1.000
    Si4085   Si       0.71782    0.81098    0.16407    1.000
    N4086    N        0.68003    0.79436    0.15090    1.000
    N4087    N        0.71792    0.82000    0.20691    1.000
    N4088    N        0.52398    0.79440    0.32400    1.000
    Si4089   Si       0.53498    0.79452    0.28163    1.000
    N4090    N        0.50114    0.78153    0.25841    1.000
    N4091    N        0.60274    0.81323    0.34180    1.000
    N4092    N        0.56003    0.82842    0.27247    1.000
    Si4093   Si       0.49672    0.82685    0.32979    1.000
    Si4094   Si       0.59629    0.82138    0.24923    1.000
    Si4095   Si       0.52965    0.77342    0.36377    1.000
    Si4096   Si       0.62391    0.78662    0.31500    1.000
    Si4097   Si       0.66687    0.82145    0.28743    1.000
    N4098    N        0.62681    0.80801    0.27529    1.000
    N4099    N        0.66448    0.80259    0.32524    1.000
    N4100    N        0.70120    0.80359    0.27018    1.000
    Si4101   Si       0.68238    0.79136    0.36131    1.000
    N4102    N        0.72471    0.77847    0.36518    1.000
    N4103    N        0.53121    0.80135    0.46198    1.000
    Si4104   Si       0.51109    0.81568    0.42409    1.000
    N4105    N        0.59888    0.79815    0.42770    1.000
    N4106    N        0.53712    0.79226    0.40195    1.000
    Si4107   Si       0.56187    0.77575    0.43820    1.000
    Si4108   Si       0.63636    0.77727    0.42186    1.000
    N4109    N        0.66838    0.79894    0.44222    1.000
    N4110    N        0.56166    0.79374    0.60411    1.000
    Si4111   Si       0.53720    0.80886    0.57238    1.000
    N4112    N        0.54504    0.79029    0.53400    1.000
    N4113    N        0.49818    0.78953    0.57831    1.000
    Si4114   Si       0.51590    0.80091    0.50092    1.000
    N4115    N        0.70476    0.80644    0.59929    1.000
    Si4116   Si       0.65833    0.81911    0.52314    1.000
    N4117    N        0.65147    0.77834    0.51231    1.000
    Si4118   Si       0.66719    0.82745    0.60322    1.000
    N4119    N        0.69894    0.82884    0.51034    1.000
    Si4120   Si       0.55281    0.80320    0.64628    1.000
    N4121    N        0.50961    0.81529    0.64930    1.000
    N4122    N        0.73701    0.82711    0.72394    1.000
    N4123    N        0.68980    0.78138    0.71383    1.000
    N4124    N        0.63583    0.81184    0.62700    1.000
    Si4125   Si       0.72069    0.79013    0.74694    1.000
    Si4126   Si       0.55900    0.80329    0.81471    1.000
    N4127    N        0.51832    0.79112    0.81876    1.000
    Si4128   Si       0.59115    0.79653    0.76103    1.000
    N4129    N        0.56256    0.82661    0.77386    1.000
    N4130    N        0.49287    0.80009    0.75841    1.000
    Si4131   Si       0.49435    0.81159    0.84856    1.000
    N4132    N        0.57890    0.83178    0.84176    1.000
    Si4133   Si       0.52212    0.83220    0.75493    1.000
    N4134    N        0.63257    0.79884    0.74873    1.000
    N4135    N        0.69689    0.81637    0.77705    1.000
    Si4136   Si       0.68909    0.78844    0.81132    1.000
    N4137    N        0.68515    0.82499    0.83609    1.000
    N4138    N        0.61559    0.77795    0.86296    1.000
    Si4139   Si       0.65888    0.83256    0.75941    1.000
    N4140    N        0.61077    0.80603    0.96916    1.000
    N4141    N        0.57114    0.81493    0.90790    1.000
    N4142    N        0.49138    0.80279    0.92224    1.000
    Si4143   Si       0.58020    0.79362    0.94429    1.000
    Si4144   Si       0.52997    0.82398    0.91106    1.000
    Si4145   Si       0.60185    0.81725    0.87540    1.000
    Si4146   Si       0.67955    0.82395    0.87840    1.000
    Si4147   Si       0.68890    0.78362    0.98586    1.000
    N4148    N        0.69504    0.78556    0.88874    1.000
    N4149    N        0.66738    0.77111    0.95040    1.000
    N4150    N        0.55023    0.86869    0.05642    1.000
    Si4151   Si       0.50934    0.87284    0.05272    1.000
    N4152    N        0.59315    0.88155    0.11358    1.000
    Si4153   Si       0.56659    0.84042    0.02771    1.000
    N4154    N        0.51206    0.83843    0.11694    1.000
    N4155    N        0.50412    0.88472    0.01070    1.000
    N4156    N        0.57715    0.86978    0.99719    1.000
    Si4157   Si       0.61535    0.88790    0.00585    1.000
    N4158    N        0.68429    0.87109    0.04428    1.000
    Si4159   Si       0.65060    0.87655    0.07183    1.000
    N4160    N        0.64933    0.84410    0.10355    1.000
    Si4161   Si       0.72960    0.84795    0.10365    1.000
    Si4162   Si       0.68802    0.85940    0.00202    1.000
    N4163    N        0.72731    0.88854    0.09047    1.000
    N4164    N        0.61741    0.89088    0.05006    1.000
    N4165    N        0.64408    0.85715    0.99651    1.000
    N4166    N        0.50404    0.86324    0.21741    1.000
    N4167    N        0.61006    0.85805    0.22911    1.000
    Si4168   Si       0.60253    0.86380    0.18700    1.000
    Si4169   Si       0.60917    0.84184    0.12254    1.000
    N4170    N        0.56422    0.88135    0.17968    1.000
    N4171    N        0.72360    0.85050    0.14649    1.000
    Si4172   Si       0.73808    0.88485    0.16992    1.000
    N4173    N        0.63387    0.88928    0.16729    1.000
    N4174    N        0.55993    0.86541    0.33197    1.000
    Si4175   Si       0.59542    0.85445    0.35551    1.000
    Si4176   Si       0.54392    0.86515    0.28949    1.000
    N4177    N        0.50212    0.85493    0.29682    1.000
    N4178    N        0.50175    0.85031    0.36613    1.000
    Si4179   Si       0.53945    0.86969    0.36949    1.000
    N4180    N        0.66803    0.86135    0.27488    1.000
    N4181    N        0.72092    0.84828    0.32132    1.000
    Si4182   Si       0.71302    0.85687    0.36389    1.000
    Si4183   Si       0.69848    0.88017    0.30119    1.000
    Si4184   Si       0.63463    0.88211    0.25681    1.000
    N4185    N        0.51180    0.85659    0.43679    1.000
    N4186    N        0.57856    0.85572    0.46604    1.000
    N4187    N        0.57107    0.85298    0.39357    1.000
    Si4188   Si       0.53443    0.85735    0.47336    1.000
    Si4189   Si       0.59302    0.84171    0.42781    1.000
    Si4190   Si       0.60784    0.86970    0.49554    1.000
    N4191    N        0.68711    0.83012    0.38370    1.000
    N4192    N        0.64453    0.84700    0.49130    1.000
    N4193    N        0.63391    0.85967    0.41993    1.000
    N4194    N        0.69854    0.86362    0.44206    1.000
    Si4195   Si       0.66983    0.83898    0.42296    1.000
    Si4196   Si       0.68598    0.85988    0.48416    1.000
    N4197    N        0.53163    0.85211    0.56671    1.000
    N4198    N        0.59497    0.86412    0.53752    1.000
    N4199    N        0.60515    0.87388    0.60697    1.000
    Si4200   Si       0.55462    0.87918    0.53803    1.000
    N4201    N        0.50518    0.84280    0.50273    1.000
    Si4202   Si       0.51202    0.88919    0.58397    1.000
    Si4203   Si       0.62442    0.86940    0.56815    1.000
    N4204    N        0.68211    0.87009    0.61312    1.000
    N4205    N        0.64947    0.83319    0.56363    1.000
    N4206    N        0.48966    0.88207    0.67001    1.000
    Si4207   Si       0.49607    0.84073    0.68389    1.000
    N4208    N        0.59863    0.85724    0.72350    1.000
    Si4209   Si       0.56467    0.86031    0.69613    1.000
    N4210    N        0.52876    0.84246    0.71449    1.000
    N4211    N        0.57619    0.83633    0.66064    1.000
    Si4212   Si       0.61226    0.84775    0.63963    1.000
    N4213    N        0.66942    0.85705    0.72489    1.000
    N4214    N        0.64031    0.86877    0.66552    1.000
    Si4215   Si       0.63476    0.87741    0.70735    1.000
    Si4216   Si       0.67993    0.88171    0.65292    1.000
    N4217    N        0.71356    0.86069    0.67269    1.000
    Si4218   Si       0.71243    0.86034    0.71460    1.000
    Si4219   Si       0.59136    0.86008    0.76830    1.000
    N4220    N        0.50326    0.86649    0.77308    1.000
    Si4221   Si       0.49611    0.87459    0.85535    1.000
    Si4222   Si       0.55830    0.86394    0.86365    1.000
    N4223    N        0.63202    0.85686    0.78649    1.000
    Si4224   Si       0.71246    0.84486    0.80780    1.000
    N4225    N        0.69794    0.88408    0.79781    1.000
    Si4226   Si       0.65440    0.88719    0.80773    1.000
    N4227    N        0.51946    0.84017    0.87371    1.000
    N4228    N        0.52053    0.85514    0.93802    1.000
    N4229    N        0.59057    0.88759    0.88493    1.000
    Si4230   Si       0.73811    0.87675    0.89571    1.000
    Si4231   Si       0.63284    0.88073    0.88549    1.000
    N4232    N        0.63860    0.83647    0.88561    1.000
    Si4233   Si       0.69027    0.88768    0.93040    1.000
    N4234    N        0.70399    0.88517    0.97024    1.000
    N4235    N        0.70025    0.85681    0.90009    1.000
    N4236    N        0.56219    0.93461    0.07698    1.000
    N4237    N        0.56032    0.93112    0.00582    1.000
    Si4238   Si       0.58087    0.89575    0.07468    1.000
    N4239    N        0.49315    0.89813    0.08301    1.000
    N4240    N        0.65467    0.91141    0.09912    1.000
    Si4241   Si       0.70966    0.90358    0.05491    1.000
    N4242    N        0.68792    0.94045    0.05216    1.000
    N4243    N        0.49998    0.90069    0.15375    1.000
    N4244    N        0.52795    0.92920    0.21375    1.000
    Si4245   Si       0.52366    0.89315    0.19111    1.000
    N4246    N        0.60857    0.94601    0.12848    1.000
    N4247    N        0.70206    0.89717    0.18885    1.000
    Si4248   Si       0.66289    0.91230    0.19015    1.000
    Si4249   Si       0.62414    0.90555    0.12965    1.000
    N4250    N        0.64433    0.91580    0.23064    1.000
    N4251    N        0.54909    0.90488    0.27519    1.000
    Si4252   Si       0.58214    0.93045    0.28649    1.000
    Si4253   Si       0.52096    0.93186    0.25637    1.000
    Si4254   Si       0.54148    0.94948    0.35082    1.000
    N4255    N        0.61698    0.90450    0.29179    1.000
    N4256    N        0.67596    0.90301    0.33006    1.000
    Si4257   Si       0.63496    0.91484    0.32927    1.000
    N4258    N        0.72811    0.90420    0.28160    1.000
    Si4259   Si       0.73228    0.94454    0.29158    1.000
    Si4260   Si       0.69056    0.92291    0.36613    1.000
    N4261    N        0.61734    0.89072    0.36205    1.000
    N4262    N        0.54222    0.91241    0.37334    1.000
    N4263    N        0.53002    0.92297    0.44089    1.000
    N4264    N        0.59898    0.92081    0.42462    1.000
    Si4265   Si       0.55923    0.93015    0.40952    1.000
    Si4266   Si       0.53806    0.93456    0.48188    1.000
    Si4267   Si       0.49540    0.89724    0.43586    1.000
    Si4268   Si       0.60979    0.93759    0.46173    1.000
    N4269    N        0.62126    0.91084    0.49344    1.000
    Si4270   Si       0.72182    0.89782    0.42663    1.000
    N4271    N        0.66422    0.92406    0.40274    1.000
    Si4272   Si       0.62890    0.90121    0.40289    1.000
    N4273    N        0.71767    0.89649    0.38228    1.000
    N4274    N        0.71446    0.94088    0.44213    1.000
    N4275    N        0.55708    0.91393    0.56673    1.000
    Si4276   Si       0.57297    0.90194    0.60620    1.000
    N4277    N        0.54163    0.89381    0.50031    1.000
    N4278    N        0.57379    0.94511    0.61800    1.000
    Si4279   Si       0.49696    0.94971    0.54146    1.000
    Si4280   Si       0.73016    0.89971    0.51458    1.000
    Si4281   Si       0.65518    0.92263    0.51784    1.000
    Si4282   Si       0.68932    0.89772    0.58075    1.000
    N4283    N        0.65236    0.90112    0.55796    1.000
    N4284    N        0.69510    0.93664    0.59944    1.000
    N4285    N        0.68947    0.90294    0.50058    1.000
    N4286    N        0.72352    0.89280    0.55645    1.000
    N4287    N        0.53580    0.89058    0.62239    1.000
    Si4288   Si       0.52412    0.90578    0.66197    1.000
    N4289    N        0.55707    0.90260    0.68910    1.000
    Si4290   Si       0.58391    0.93337    0.71001    1.000
    N4291    N        0.50644    0.92239    0.73936    1.000
    N4292    N        0.51180    0.94718    0.66522    1.000
    N4293    N        0.68558    0.91858    0.67685    1.000
    Si4294   Si       0.72403    0.92399    0.69603    1.000
    Si4295   Si       0.65125    0.94402    0.68378    1.000
    N4296    N        0.62429    0.92025    0.70677    1.000
    N4297    N        0.72605    0.89925    0.73237    1.000
    Si4298   Si       0.59370    0.92977    0.78474    1.000
    Si4299   Si       0.52562    0.90304    0.77435    1.000
    N4300    N        0.59002    0.94018    0.82667    1.000
    N4301    N        0.52055    0.93781    0.80132    1.000
    Si4302   Si       0.54747    0.93792    0.83864    1.000
    N4303    N        0.56832    0.89582    0.77301    1.000
    N4304    N        0.53387    0.89369    0.84303    1.000
    N4305    N        0.63722    0.92482    0.78798    1.000
    Si4306   Si       0.72247    0.91271    0.77394    1.000
    N4307    N        0.64791    0.90084    0.84833    1.000
    Si4308   Si       0.63132    0.94027    0.84202    1.000
    N4309    N        0.70034    0.95016    0.77194    1.000
    N4310    N        0.53356    0.91654    0.95296    1.000
    Si4311   Si       0.58850    0.92968    0.89736    1.000
    N4312    N        0.59293    0.93935    0.93913    1.000
    N4313    N        0.55358    0.94715    0.88260    1.000
    Si4314   Si       0.54205    0.89432    0.99051    1.000
    Si4315   Si       0.50638    0.89542    0.92850    1.000
    Si4316   Si       0.73274    0.91152    0.98505    1.000
    Si4317   Si       0.73879    0.93737    0.87879    1.000
    Si4318   Si       0.63402    0.93150    0.94676    1.000
    N4319    N        0.71505    0.91646    0.90790    1.000
    N4320    N        0.64840    0.89681    0.92315    1.000
    N4321    N        0.63291    0.92575    0.99081    1.000
    N4322    N        0.50721    0.96436    0.05024    1.000
    N4323    N        0.55937    0.99689    0.03750    1.000
    Si4324   Si       0.57003    0.95894    0.11459    1.000
    N4325    N        0.58298    0.99905    0.09981    1.000
    Si4326   Si       0.59740    0.00248    0.05950    1.000
    Si4327   Si       0.54963    0.95264    0.04106    1.000
    Si4328   Si       0.51963    0.00641    0.05585    1.000
    N4329    N        0.73133    0.99760    0.04154    1.000
    N4330    N        0.67027    0.99218    0.00604    1.000
    N4331    N        0.62488    0.96748    0.05418    1.000
    N4332    N        0.67348    0.98114    0.10817    1.000
    Si4333   Si       0.70301    0.97041    0.02723    1.000
    Si4334   Si       0.63160    0.96427    0.01004    1.000
    Si4335   Si       0.71772    0.97653    0.11243    1.000
    Si4336   Si       0.65603    0.95136    0.07894    1.000
    N4337    N        0.53467    0.99594    0.20172    1.000
    Si4338   Si       0.55124    0.95805    0.18961    1.000
    N4339    N        0.59427    0.96006    0.19240    1.000
    N4340    N        0.54272    0.95734    0.14728    1.000
    Si4341   Si       0.53391    0.01037    0.24404    1.000
    Si4342   Si       0.49485    0.01100    0.18789    1.000
    Si4343   Si       0.69430    0.97841    0.18442    1.000
    N4344    N        0.65794    0.95400    0.18056    1.000
    N4345    N        0.72235    0.96509    0.15391    1.000
    N4346    N        0.64373    0.99002    0.24025    1.000
    Si4347   Si       0.62404    0.95453    0.22436    1.000
    Si4348   Si       0.62272    0.96910    0.16203    1.000
    N4349    N        0.71016    0.98361    0.22533    1.000
    N4350    N        0.51363    0.97958    0.34020    1.000
    N4351    N        0.52764    0.97199    0.26799    1.000
    Si4352   Si       0.50540    0.99234    0.29975    1.000
    N4353    N        0.59262    0.95878    0.25680    1.000
    Si4354   Si       0.60223    0.98145    0.33323    1.000
    Si4355   Si       0.60596    0.00105    0.26128    1.000
    N4356    N        0.57261    0.95218    0.32189    1.000
    Si4357   Si       0.73662    0.97848    0.35189    1.000
    N4358    N        0.69802    0.96796    0.28673    1.000
    Si4359   Si       0.68426    0.99439    0.25699    1.000
    N4360    N        0.69862    0.96456    0.36054    1.000
    Si4361   Si       0.66133    0.98533    0.36449    1.000
    N4362    N        0.63693    0.95590    0.34279    1.000
    Si4363   Si       0.58185    0.00341    0.47510    1.000
    Si4364   Si       0.50919    0.99942    0.37899    1.000
    N4365    N        0.57371    0.96032    0.47520    1.000
    N4366    N        0.55394    0.96932    0.38921    1.000
    Si4367   Si       0.57659    0.00499    0.39639    1.000
    N4368    N        0.66332    0.99021    0.40853    1.000
    Si4369   Si       0.67610    0.95671    0.43077    1.000
    N4370    N        0.64603    0.96144    0.46285    1.000
    N4371    N        0.59149    0.98093    0.56155    1.000
    N4372    N        0.52379    0.97565    0.56069    1.000
    Si4373   Si       0.56139    0.95659    0.57635    1.000
    N4374    N        0.50963    0.96010    0.50017    1.000
    N4375    N        0.66276    0.00044    0.59290    1.000
    N4376    N        0.72455    0.98171    0.56322    1.000
    Si4377   Si       0.68334    0.99423    0.55584    1.000
    N4378    N        0.66327    0.96678    0.52761    1.000
    Si4379   Si       0.72821    0.96649    0.60178    1.000
    Si4380   Si       0.65146    0.99418    0.49637    1.000
    N4381    N        0.51722    0.98695    0.72204    1.000
    Si4382   Si       0.53705    0.97585    0.68272    1.000
    N4383    N        0.57982    0.96678    0.68258    1.000
    Si4384   Si       0.59679    0.97344    0.64367    1.000
    N4385    N        0.70816    0.98303    0.63944    1.000
    N4386    N        0.66379    0.98219    0.69838    1.000
    Si4387   Si       0.70562    0.99163    0.68247    1.000
    N4388    N        0.63727    0.95776    0.64527    1.000
    Si4389   Si       0.67109    0.96878    0.62044    1.000
    N4390    N        0.73072    0.96597    0.70736    1.000
    N4391    N        0.53670    0.98800    0.83810    1.000
    Si4392   Si       0.59205    0.99803    0.75766    1.000
    Si4393   Si       0.49995    0.97772    0.81365    1.000
    N4394    N        0.58307    0.95507    0.75184    1.000
    N4395    N        0.65301    0.97606    0.82505    1.000
    Si4396   Si       0.69029    0.98832    0.84560    1.000
    N4397    N        0.63661    0.99317    0.76255    1.000
    N4398    N        0.72572    0.96337    0.84540    1.000
    Si4399   Si       0.66019    0.96126    0.78180    1.000
    Si4400   Si       0.72430    0.97861    0.74938    1.000
    Si4401   Si       0.53723    0.98679    0.88311    1.000
    N4402    N        0.53750    0.98672    0.96924    1.000
    N4403    N        0.50391    0.98632    0.90876    1.000
    N4404    N        0.60382    0.99055    0.98671    1.000
    Si4405   Si       0.50651    0.00652    0.94631    1.000
    Si4406   Si       0.56436    0.00862    0.99541    1.000
    Si4407   Si       0.55970    0.94921    0.96467    1.000
    Si4408   Si       0.69106    0.97924    0.96700    1.000
    Si4409   Si       0.64553    0.98508    0.90571    1.000
    N4410    N        0.71538    0.95158    0.98780    1.000
    N4411    N        0.65867    0.96719    0.94275    1.000
    N4412    N        0.67853    0.00053    0.88409    1.000
    N4413    N        0.62448    0.95303    0.88365    1.000
    Si4414   Si       0.78126    0.01643    0.11654    1.000
    Si4415   Si       0.82520    0.03481    0.05115    1.000
    N4416    N        0.82628    0.01755    0.01078    1.000
    N4417    N        0.74499    0.04944    0.99861    1.000
    N4418    N        0.79479    0.01424    0.07437    1.000
    N4419    N        0.78594    0.06109    0.12201    1.000
    N4420    N        0.86834    0.03091    0.06525    1.000
    Si4421   Si       0.87844    0.04140    0.10690    1.000
    N4422    N        0.94271    0.02195    0.05631    1.000
    Si4423   Si       0.95254    0.05227    0.08713    1.000
    N4424    N        0.92002    0.03449    0.11636    1.000
    Si4425   Si       0.86944    0.02473    0.99277    1.000
    N4426    N        0.77522    0.00945    0.21535    1.000
    N4427    N        0.83835    0.03755    0.20857    1.000
    Si4428   Si       0.75908    0.04817    0.22850    1.000
    N4429    N        0.85857    0.01450    0.13413    1.000
    N4430    N        0.94371    0.05843    0.22108    1.000
    Si4431   Si       0.92551    0.01756    0.22459    1.000
    N4432    N        0.90793    0.01019    0.18504    1.000
    Si4433   Si       0.86728    0.02398    0.17599    1.000
    Si4434   Si       0.76384    0.03882    0.31370    1.000
    N4435    N        0.75312    0.04432    0.27204    1.000
    N4436    N        0.85991    0.02207    0.34237    1.000
    Si4437   Si       0.81947    0.01353    0.35198    1.000
    N4438    N        0.79691    0.00965    0.31515    1.000
    N4439    N        0.97027    0.03600    0.28560    1.000
    Si4440   Si       0.94344    0.04114    0.31926    1.000
    N4441    N        0.97680    0.04869    0.34910    1.000
    N4442    N        0.89478    0.01551    0.25471    1.000
    Si4443   Si       0.87170    0.06404    0.34495    1.000
    N4444    N        0.80030    0.04123    0.37731    1.000
    N4445    N        0.85499    0.01915    0.42162    1.000
    Si4446   Si       0.76276    0.02534    0.39758    1.000
    N4447    N        0.78340    0.02875    0.43706    1.000
    Si4448   Si       0.82007    0.04490    0.41598    1.000
    N4449    N        0.92859    0.02840    0.39995    1.000
    Si4450   Si       0.90232    0.06159    0.48719    1.000
    Si4451   Si       0.89348    0.04267    0.42192    1.000
    N4452    N        0.89863    0.02242    0.46848    1.000
    Si4453   Si       0.96598    0.04965    0.39083    1.000
    N4454    N        0.87728    0.07122    0.38781    1.000
    Si4455   Si       0.78375    0.04940    0.56831    1.000
    N4456    N        0.75827    0.04105    0.53459    1.000
    N4457    N        0.80187    0.02156    0.59872    1.000
    N4458    N        0.82046    0.06215    0.54634    1.000
    Si4459   Si       0.86175    0.04812    0.54437    1.000
    N4460    N        0.90468    0.03964    0.52976    1.000
    N4461    N        0.97297    0.03434    0.52782    1.000
    Si4462   Si       0.97713    0.02670    0.56958    1.000
    N4463    N        0.94858    0.05241    0.59099    1.000
    Si4464   Si       0.91896    0.06467    0.56255    1.000
    Si4465   Si       0.83290    0.02826    0.63027    1.000
    Si4466   Si       0.78858    0.04334    0.69160    1.000
    N4467    N        0.76215    0.03131    0.72264    1.000
    N4468    N        0.81036    0.01676    0.66550    1.000
    N4469    N        0.84930    0.06668    0.63741    1.000
    N4470    N        0.81956    0.06978    0.71108    1.000
    Si4471   Si       0.89128    0.02075    0.71501    1.000
    Si4472   Si       0.96030    0.05035    0.72184    1.000
    N4473    N        0.88650    0.06071    0.69441    1.000
    N4474    N        0.93662    0.01419    0.71723    1.000
    N4475    N        0.79837    0.04657    0.77300    1.000
    Si4476   Si       0.79502    0.04245    0.81395    1.000
    N4477    N        0.83136    0.05751    0.83089    1.000
    Si4478   Si       0.78778    0.01016    0.75117    1.000
    N4479    N        0.94282    0.02501    0.79945    1.000
    N4480    N        0.89468    0.05850    0.79730    1.000
    Si4481   Si       0.89876    0.01552    0.79523    1.000
    Si4482   Si       0.82740    0.05278    0.87266    1.000
    N4483    N        0.78231    0.04316    0.94751    1.000
    Si4484   Si       0.81680    0.04518    0.97303    1.000
    N4485    N        0.85059    0.02493    0.95448    1.000
    N4486    N        0.81404    0.01518    0.89179    1.000
    Si4487   Si       0.75315    0.01653    0.96938    1.000
    Si4488   Si       0.76951    0.06336    0.90940    1.000
    N4489    N        0.73989    0.04069    0.88791    1.000
    Si4490   Si       0.85118    0.01121    0.91370    1.000
    N4491    N        0.89506    0.06195    0.99429    1.000
    Si4492   Si       0.93247    0.06246    0.97097    1.000
    Si4493   Si       0.90826    0.05725    0.89743    1.000
    N4494    N        0.92888    0.01972    0.89883    1.000
    N4495    N        0.86714    0.04548    0.89063    1.000
    N4496    N        0.95337    0.02475    0.96925    1.000
    Si4497   Si       0.84582    0.10186    0.07349    1.000
    Si4498   Si       0.77823    0.08232    0.08670    1.000
    N4499    N        0.81223    0.08096    0.05515    1.000
    Si4500   Si       0.80380    0.10549    0.01557    1.000
    N4501    N        0.86301    0.08074    0.10864    1.000
    N4502    N        0.77002    0.12251    0.10079    1.000
    Si4503   Si       0.93594    0.12173    0.11986    1.000
    N4504    N        0.98563    0.07250    0.04430    1.000
    Si4505   Si       0.91245    0.12115    0.06079    1.000
    N4506    N        0.93642    0.09239    0.08655    1.000
    N4507    N        0.87575    0.10526    0.04361    1.000
    Si4508   Si       0.97131    0.10519    0.01881    1.000
    Si4509   Si       0.87106    0.09681    0.99980    1.000
    Si4510   Si       0.77416    0.08586    0.16227    1.000
    N4511    N        0.81774    0.09547    0.16310    1.000
    Si4512   Si       0.82405    0.07935    0.20380    1.000
    N4513    N        0.78057    0.07799    0.20788    1.000
    Si4514   Si       0.85843    0.09714    0.14802    1.000
    N4515    N        0.83851    0.10883    0.23155    1.000
    Si4516   Si       0.91885    0.08057    0.18971    1.000
    N4517    N        0.87998    0.06682    0.17353    1.000
    N4518    N        0.90460    0.11218    0.21657    1.000
    N4519    N        0.93086    0.10666    0.15937    1.000
    Si4520   Si       0.79890    0.10611    0.33234    1.000
    N4521    N        0.76367    0.08140    0.32750    1.000
    N4522    N        0.84346    0.09365    0.33056    1.000
    N4523    N        0.80614    0.12646    0.29446    1.000
    Si4524   Si       0.92039    0.10555    0.30756    1.000
    N4525    N        0.95693    0.09966    0.28509    1.000
    Si4526   Si       0.96759    0.06888    0.25553    1.000
    N4527    N        0.88754    0.11866    0.28503    1.000
    N4528    N        0.90984    0.06576    0.32394    1.000
    Si4529   Si       0.79172    0.10136    0.44814    1.000
    N4530    N        0.82645    0.08223    0.43212    1.000
    N4531    N        0.75739    0.09567    0.42318    1.000
    N4532    N        0.79031    0.08840    0.48877    1.000
    N4533    N        0.89454    0.08148    0.44503    1.000
    Si4534   Si       0.86377    0.09869    0.41821    1.000
    Si4535   Si       0.93521    0.09960    0.44588    1.000
    N4536    N        0.96207    0.08649    0.41383    1.000
    N4537    N        0.94322    0.07461    0.48305    1.000
    Si4538   Si       0.82435    0.09042    0.51489    1.000
    N4539    N        0.76086    0.07911    0.58962    1.000
    Si4540   Si       0.75354    0.07272    0.50517    1.000
    N4541    N        0.86403    0.07658    0.50355    1.000
    N4542    N        0.83160    0.12623    0.53792    1.000
    Si4543   Si       0.86628    0.12226    0.56405    1.000
    N4544    N        0.87965    0.08024    0.57383    1.000
    N4545    N        0.94002    0.09630    0.54296    1.000
    Si4546   Si       0.95300    0.08965    0.61280    1.000
    Si4547   Si       0.96734    0.07498    0.51706    1.000
    Si4548   Si       0.87398    0.09339    0.61639    1.000
    Si4549   Si       0.75957    0.09305    0.62997    1.000
    Si4550   Si       0.85038    0.07883    0.67922    1.000
    N4551    N        0.84350    0.12276    0.67797    1.000
    N4552    N        0.76656    0.06719    0.66373    1.000
    N4553    N        0.78408    0.12924    0.63440    1.000
    N4554    N        0.91523    0.09371    0.63567    1.000
    Si4555   Si       0.91655    0.08691    0.67726    1.000
    Si4556   Si       0.93471    0.11399    0.73632    1.000
    N4557    N        0.90850    0.12168    0.70267    1.000
    N4558    N        0.95800    0.08363    0.69208    1.000
    N4559    N        0.84751    0.10387    0.76997    1.000
    Si4560   Si       0.75234    0.09210    0.78916    1.000
    Si4561   Si       0.78521    0.10666    0.84947    1.000
    N4562    N        0.77684    0.10989    0.75701    1.000
    N4563    N        0.76321    0.07354    0.82679    1.000
    Si4564   Si       0.81250    0.08358    0.75253    1.000
    Si4565   Si       0.85915    0.08144    0.80741    1.000
    N4566    N        0.86890    0.11474    0.83476    1.000
    N4567    N        0.97139    0.08667    0.81336    1.000
    Si4568   Si       0.96473    0.07403    0.85473    1.000
    N4569    N        0.92283    0.07898    0.86322    1.000
    Si4570   Si       0.90214    0.11801    0.86193    1.000
    N4571    N        0.94460    0.07506    0.75248    1.000
    Si4572   Si       0.93719    0.06800    0.79303    1.000
    Si4573   Si       0.74190    0.08477    0.97371    1.000
    N4574    N        0.79816    0.08301    0.88313    1.000
    N4575    N        0.74587    0.09264    0.93035    1.000
    N4576    N        0.82894    0.08237    0.99000    1.000
    N4577    N        0.76780    0.11694    0.99191    1.000
    N4578    N        0.98066    0.09439    0.89057    1.000
    N4579    N        0.91619    0.07903    0.93290    1.000
    N4580    N        0.96817    0.08464    0.97979    1.000
    Si4581   Si       0.90436    0.11993    0.93430    1.000
    Si4582   Si       0.79693    0.15653    0.08931    1.000
    N4583    N        0.83563    0.13934    0.09110    1.000
    N4584    N        0.77349    0.16605    0.05317    1.000
    N4585    N        0.82258    0.14672    0.00851    1.000
    Si4586   Si       0.80305    0.18222    0.02572    1.000
    Si4587   Si       0.86825    0.16068    0.11502    1.000
    Si4588   Si       0.94039    0.17505    0.01676    1.000
    N4589    N        0.90437    0.14332    0.09730    1.000
    N4590    N        0.93656    0.13039    0.02637    1.000
    N4591    N        0.96784    0.15158    0.11775    1.000
    N4592    N        0.96590    0.18183    0.05235    1.000
    Si4593   Si       0.73967    0.13615    0.13106    1.000
    N4594    N        0.75947    0.13125    0.16870    1.000
    Si4595   Si       0.76171    0.16336    0.19917    1.000
    N4596    N        0.78615    0.16327    0.23439    1.000
    N4597    N        0.92839    0.17381    0.17069    1.000
    N4598    N        0.86953    0.13960    0.15405    1.000
    N4599    N        0.88433    0.17257    0.21667    1.000
    Si4600   Si       0.87455    0.13398    0.24017    1.000
    Si4601   Si       0.90286    0.14202    0.18302    1.000
    N4602    N        0.84652    0.16017    0.26245    1.000
    N4603    N        0.80062    0.13758    0.36258    1.000
    Si4604   Si       0.76611    0.16255    0.36392    1.000
    Si4605   Si       0.85075    0.13113    0.30402    1.000
    Si4606   Si       0.81224    0.13597    0.25349    1.000
    N4607    N        0.85770    0.16227    0.33523    1.000
    Si4608   Si       0.94452    0.16457    0.35807    1.000
    N4609    N        0.93096    0.12788    0.34238    1.000
    Si4610   Si       0.83850    0.15746    0.37260    1.000
    Si4611   Si       0.76415    0.16982    0.43779    1.000
    Si4612   Si       0.83808    0.16401    0.43713    1.000
    N4613    N        0.79811    0.14457    0.44335    1.000
    N4614    N        0.74369    0.16742    0.40066    1.000
    N4615    N        0.85819    0.13829    0.40646    1.000
    N4616    N        0.86102    0.15502    0.47344    1.000
    Si4617   Si       0.96450    0.16769    0.42932    1.000
    N4618    N        0.94182    0.14107    0.45832    1.000
    Si4619   Si       0.94770    0.17054    0.49161    1.000
    N4620    N        0.77831    0.16717    0.52158    1.000
    Si4621   Si       0.81340    0.16411    0.54563    1.000
    Si4622   Si       0.77010    0.16036    0.60524    1.000
    N4623    N        0.79901    0.18279    0.58232    1.000
    N4624    N        0.86220    0.13352    0.60635    1.000
    N4625    N        0.96767    0.15407    0.52591    1.000
    N4626    N        0.89719    0.14576    0.54588    1.000
    Si4627   Si       0.87636    0.16704    0.51288    1.000
    Si4628   Si       0.93848    0.13660    0.55315    1.000
    N4629    N        0.95629    0.12991    0.59545    1.000
    N4630    N        0.82372    0.18052    0.64590    1.000
    Si4631   Si       0.80591    0.14661    0.66633    1.000
    N4632    N        0.77167    0.16017    0.69514    1.000
    Si4633   Si       0.76869    0.14640    0.73641    1.000
    N4634    N        0.86009    0.16331    0.72903    1.000
    Si4635   Si       0.86103    0.17171    0.62707    1.000
    N4636    N        0.74609    0.18764    0.62823    1.000
    N4637    N        0.97938    0.14312    0.66344    1.000
    Si4638   Si       0.87595    0.14699    0.69301    1.000
    N4639    N        0.96720    0.14743    0.73943    1.000
    Si4640   Si       0.97840    0.16681    0.70101    1.000
    N4641    N        0.88811    0.17367    0.66156    1.000
    Si4642   Si       0.97296    0.15800    0.62224    1.000
    Si4643   Si       0.84642    0.15059    0.82846    1.000
    Si4644   Si       0.78915    0.17260    0.80022    1.000
    N4645    N        0.80292    0.13866    0.82408    1.000
    N4646    N        0.79731    0.17293    0.75688    1.000
    N4647    N        0.85266    0.17606    0.86410    1.000
    N4648    N        0.86375    0.16859    0.79480    1.000
    N4649    N        0.75217    0.12675    0.86799    1.000
    Si4650   Si       0.87102    0.13896    0.76313    1.000
    Si4651   Si       0.96042    0.17474    0.84638    1.000
    Si4652   Si       0.94183    0.16620    0.77085    1.000
    N4653    N        0.92981    0.14770    0.85086    1.000
    N4654    N        0.91400    0.13317    0.76895    1.000
    Si4655   Si       0.73978    0.12958    0.91036    1.000
    Si4656   Si       0.75613    0.15581    0.97948    1.000
    N4657    N        0.75908    0.15753    0.93742    1.000
    Si4658   Si       0.84821    0.15648    0.97391    1.000
    N4659    N        0.82919    0.16429    0.93468    1.000
    Si4660   Si       0.86314    0.16447    0.90380    1.000
    Si4661   Si       0.97896    0.13557    0.90231    1.000
    N4662    N        0.87915    0.12473    0.90013    1.000
    N4663    N        0.94040    0.14316    0.92357    1.000
    N4664    N        0.99314    0.16164    0.86900    1.000
    Si4665   Si       0.93437    0.18347    0.93667    1.000
    N4666    N        0.87913    0.12647    0.97004    1.000
    Si4667   Si       0.83139    0.21354    0.09038    1.000
    N4668    N        0.83492    0.20106    0.04959    1.000
    N4669    N        0.79864    0.19305    0.11081    1.000
    N4670    N        0.86659    0.20308    0.11179    1.000
    Si4671   Si       0.86684    0.21328    0.02339    1.000
    N4672    N        0.90769    0.20057    0.03773    1.000
    Si4673   Si       0.93692    0.21431    0.06835    1.000
    N4674    N        0.93250    0.21611    0.11196    1.000
    Si4675   Si       0.76447    0.20557    0.13406    1.000
    N4676    N        0.77286    0.20035    0.17590    1.000
    N4677    N        0.75517    0.22773    0.24439    1.000
    N4678    N        0.82802    0.22334    0.23935    1.000
    Si4679   Si       0.74366    0.22519    0.19716    1.000
    Si4680   Si       0.86284    0.19861    0.24867    1.000
    N4681    N        0.98626    0.20643    0.16013    1.000
    N4682    N        0.89372    0.23535    0.23297    1.000
    Si4683   Si       0.91601    0.20069    0.20310    1.000
    N4684    N        0.90631    0.23166    0.17271    1.000
    N4685    N        0.95424    0.20714    0.22370    1.000
    Si4686   Si       0.89602    0.22994    0.13186    1.000
    Si4687   Si       0.95288    0.18737    0.13917    1.000
    Si4688   Si       0.76770    0.22538    0.32212    1.000
    N4689    N        0.77758    0.20499    0.35930    1.000
    N4690    N        0.79513    0.20945    0.29457    1.000
    Si4691   Si       0.79270    0.20318    0.25289    1.000
    N4692    N        0.87576    0.21324    0.29011    1.000
    Si4693   Si       0.87961    0.19945    0.33049    1.000
    Si4694   Si       0.94964    0.23041    0.32074    1.000
    N4695    N        0.92435    0.19900    0.33689    1.000
    N4696    N        0.97546    0.21001    0.29056    1.000
    Si4697   Si       0.97177    0.23172    0.25423    1.000
    N4698    N        0.87736    0.22657    0.36525    1.000
    N4699    N        0.97732    0.23804    0.35286    1.000
    N4700    N        0.77750    0.21232    0.43436    1.000
    Si4701   Si       0.79774    0.21659    0.39449    1.000
    N4702    N        0.85111    0.23732    0.48209    1.000
    N4703    N        0.83004    0.19048    0.40233    1.000
    N4704    N        0.93824    0.18347    0.39794    1.000
    N4705    N        0.97018    0.19494    0.46253    1.000
    Si4706   Si       0.91931    0.22095    0.37977    1.000
    Si4707   Si       0.96288    0.23632    0.47320    1.000
    Si4708   Si       0.89436    0.23295    0.48770    1.000
    N4709    N        0.92258    0.24592    0.45701    1.000
    Si4710   Si       0.82491    0.21826    0.58691    1.000
    Si4711   Si       0.75628    0.20774    0.53033    1.000
    Si4712   Si       0.82686    0.22867    0.51678    1.000
    N4713    N        0.78365    0.23061    0.50408    1.000
    N4714    N        0.84332    0.19193    0.53100    1.000
    N4715    N        0.74666    0.22653    0.56767    1.000
    N4716    N        0.86619    0.20617    0.59892    1.000
    N4717    N        0.81067    0.24230    0.62027    1.000
    Si4718   Si       0.97226    0.22114    0.60406    1.000
    N4719    N        0.93604    0.23363    0.57948    1.000
    Si4720   Si       0.89838    0.23548    0.60173    1.000
    N4721    N        0.91033    0.19356    0.50004    1.000
    Si4722   Si       0.81403    0.22214    0.65991    1.000
    N4723    N        0.77259    0.22684    0.67552    1.000
    N4724    N        0.83550    0.22081    0.69786    1.000
    Si4725   Si       0.82772    0.19264    0.73106    1.000
    Si4726   Si       0.74730    0.19012    0.67202    1.000
    N4727    N        0.90523    0.24098    0.64414    1.000
    Si4728   Si       0.91962    0.20193    0.65803    1.000
    Si4729   Si       0.93067    0.22458    0.72561    1.000
    N4730    N        0.94589    0.19691    0.69617    1.000
    N4731    N        0.94525    0.19077    0.62598    1.000
    N4732    N        0.81338    0.20690    0.81549    1.000
    Si4733   Si       0.82236    0.20857    0.85799    1.000
    N4734    N        0.84564    0.22380    0.75864    1.000
    Si4735   Si       0.75446    0.23071    0.81600    1.000
    N4736    N        0.74911    0.19092    0.80334    1.000
    Si4737   Si       0.81939    0.23995    0.78832    1.000
    Si4738   Si       0.87967    0.20752    0.78050    1.000
    N4739    N        0.91845    0.20199    0.76095    1.000
    N4740    N        0.94659    0.21626    0.85481    1.000
    N4741    N        0.89583    0.23404    0.81222    1.000
    Si4742   Si       0.94068    0.22683    0.81307    1.000
    N4743    N        0.96421    0.18752    0.80249    1.000
    Si4744   Si       0.76610    0.23274    0.97716    1.000
    Si4745   Si       0.75921    0.22279    0.89191    1.000
    N4746    N        0.76899    0.22518    0.93483    1.000
    N4747    N        0.79271    0.19623    0.88658    1.000
    N4748    N        0.77979    0.19406    0.99036    1.000
    Si4749   Si       0.79169    0.18483    0.92954    1.000
    N4750    N        0.94955    0.18899    0.97744    1.000
    N4751    N        0.86323    0.19516    0.98512    1.000
    Si4752   Si       0.95835    0.24104    0.88765    1.000
    N4753    N        0.96169    0.21449    0.92165    1.000
    Si4754   Si       0.97892    0.22171    0.96312    1.000
    Si4755   Si       0.87489    0.22182    0.95065    1.000
    N4756    N        0.89236    0.19127    0.92559    1.000
    N4757    N        0.82639    0.25646    0.08673    1.000
    Si4758   Si       0.79064    0.27289    0.10307    1.000
    N4759    N        0.86141    0.25496    0.01056    1.000
    N4760    N        0.75896    0.24647    0.11535    1.000
    Si4761   Si       0.86247    0.28139    0.09216    1.000
    Si4762   Si       0.93840    0.28467    0.05003    1.000
    N4763    N        0.90056    0.27782    0.07177    1.000
    N4764    N        0.95927    0.24735    0.05604    1.000
    N4765    N        0.92495    0.29173    0.01099    1.000
    Si4766   Si       0.84261    0.28566    0.15795    1.000
    N4767    N        0.75452    0.26956    0.19592    1.000
    Si4768   Si       0.83486    0.26617    0.23680    1.000
    N4769    N        0.85080    0.27091    0.19620    1.000
    N4770    N        0.80300    0.28595    0.14235    1.000
    Si4771   Si       0.76325    0.27074    0.23990    1.000
    N4772    N        0.80041    0.29217    0.23965    1.000
    Si4773   Si       0.77260    0.29856    0.16958    1.000
    Si4774   Si       0.89285    0.26354    0.19883    1.000
    N4775    N        0.91256    0.30196    0.19097    1.000
    N4776    N        0.87290    0.26740    0.13120    1.000
    N4777    N        0.97924    0.27809    0.17819    1.000
    N4778    N        0.76778    0.26823    0.32828    1.000
    Si4779   Si       0.78880    0.28473    0.36321    1.000
    N4780    N        0.86321    0.27955    0.26882    1.000
    N4781    N        0.86359    0.29514    0.35417    1.000
    Si4782   Si       0.94407    0.29396    0.28767    1.000
    N4783    N        0.92626    0.25654    0.29767    1.000
    Si4784   Si       0.96114    0.27694    0.36547    1.000
    Si4785   Si       0.89180    0.24886    0.27249    1.000
    N4786    N        0.96523    0.27643    0.25335    1.000
    N4787    N        0.96657    0.29780    0.32713    1.000
    N4788    N        0.81323    0.25510    0.38197    1.000
    Si4789   Si       0.84330    0.27084    0.45406    1.000
    N4790    N        0.80182    0.27821    0.45389    1.000
    Si4791   Si       0.85702    0.26159    0.38041    1.000
    N4792    N        0.76231    0.29363    0.39876    1.000
    Si4793   Si       0.77454    0.24404    0.46154    1.000
    N4794    N        0.98618    0.29324    0.39787    1.000
    N4795    N        0.92830    0.26144    0.38782    1.000
    Si4796   Si       0.91165    0.27613    0.42541    1.000
    Si4797   Si       0.97642    0.30002    0.43894    1.000
    N4798    N        0.87003    0.27266    0.42044    1.000
    N4799    N        0.75804    0.28971    0.58767    1.000
    Si4800   Si       0.84836    0.28577    0.57226    1.000
    Si4801   Si       0.79120    0.28115    0.61597    1.000
    N4802    N        0.82931    0.25045    0.55443    1.000
    N4803    N        0.82838    0.30384    0.60528    1.000
    Si4804   Si       0.93526    0.25674    0.54359    1.000
    N4805    N        0.88829    0.27505    0.58771    1.000
    N4806    N        0.90061    0.26269    0.51856    1.000
    N4807    N        0.94298    0.29738    0.55191    1.000
    Si4808   Si       0.88181    0.30380    0.51093    1.000
    N4809    N        0.96732    0.24048    0.51826    1.000
    N4810    N        0.77316    0.28963    0.65428    1.000
    N4811    N        0.84308    0.28894    0.72748    1.000
    Si4812   Si       0.74686    0.26082    0.67082    1.000
    Si4813   Si       0.85731    0.24784    0.72238    1.000
    N4814    N        0.96242    0.25185    0.73241    1.000
    N4815    N        0.93321    0.29817    0.67912    1.000
    Si4816   Si       0.96966    0.29394    0.65011    1.000
    Si4817   Si       0.95815    0.29222    0.71580    1.000
    N4818    N        0.97705    0.25191    0.63818    1.000
    N4819    N        0.89718    0.24806    0.71128    1.000
    Si4820   Si       0.89957    0.27052    0.67280    1.000
    N4821    N        0.84224    0.27391    0.80071    1.000
    N4822    N        0.77988    0.25742    0.79012    1.000
    Si4823   Si       0.76932    0.28469    0.86746    1.000
    N4824    N        0.84293    0.24558    0.86627    1.000
    Si4825   Si       0.77382    0.30032    0.79204    1.000
    N4826    N        0.76878    0.24369    0.85406    1.000
    Si4827   Si       0.86752    0.26194    0.83263    1.000
    N4828    N        0.97451    0.25378    0.80159    1.000
    N4829    N        0.89649    0.29677    0.83900    1.000
    Si4830   Si       0.83060    0.27074    0.97921    1.000
    Si4831   Si       0.83575    0.27036    0.90476    1.000
    N4832    N        0.79743    0.29212    0.90081    1.000
    N4833    N        0.78661    0.27123    0.98352    1.000
    N4834    N        0.83950    0.24582    0.94023    1.000
    N4835    N        0.86675    0.30100    0.90313    1.000
    Si4836   Si       0.89045    0.28105    0.98764    1.000
    Si4837   Si       0.93453    0.27470    0.94263    1.000
    N4838    N        0.90571    0.24874    0.96024    1.000
    N4839    N        0.97265    0.26558    0.95988    1.000
    N4840    N        0.93170    0.27492    0.89905    1.000
    Si4841   Si       0.90448    0.30205    0.88112    1.000
    N4842    N        0.84392    0.32225    0.08843    1.000
    Si4843   Si       0.81356    0.33057    0.05968    1.000
    N4844    N        0.75327    0.33057    0.02097    1.000
    N4845    N        0.82104    0.32168    0.01749    1.000
    Si4846   Si       0.73970    0.31141    0.05733    1.000
    N4847    N        0.78038    0.30425    0.07462    1.000
    Si4848   Si       0.98194    0.32149    0.09861    1.000
    N4849    N        0.97637    0.30829    0.05741    1.000
    Si4850   Si       0.84765    0.34993    0.12303    1.000
    N4851    N        0.85488    0.32808    0.15881    1.000
    Si4852   Si       0.81358    0.33141    0.22195    1.000
    N4853    N        0.78708    0.33533    0.18358    1.000
    N4854    N        0.85801    0.33129    0.22740    1.000
    Si4855   Si       0.88258    0.33381    0.19072    1.000
    N4856    N        0.96953    0.34169    0.18310    1.000
    Si4857   Si       0.94830    0.30816    0.16646    1.000
    N4858    N        0.94534    0.32306    0.12489    1.000
    N4859    N        0.80092    0.32247    0.34728    1.000
    Si4860   Si       0.84338    0.33122    0.33995    1.000
    N4861    N        0.84672    0.34234    0.29745    1.000
    N4862    N        0.74157    0.34087    0.31353    1.000
    Si4863   Si       0.77636    0.35693    0.33687    1.000
    Si4864   Si       0.87394    0.32242    0.26761    1.000
    N4865    N        0.91572    0.32830    0.28006    1.000
    Si4866   Si       0.84303    0.34308    0.46160    1.000
    Si4867   Si       0.78179    0.31358    0.43296    1.000
    N4868    N        0.81340    0.34232    0.42868    1.000
    N4869    N        0.75394    0.33753    0.45595    1.000
    N4870    N        0.85883    0.30601    0.47563    1.000
    N4871    N        0.87887    0.35844    0.44340    1.000
    N4872    N        0.93469    0.30911    0.43880    1.000
    Si4873   Si       0.91468    0.34355    0.45948    1.000
    Si4874   Si       0.84429    0.35926    0.53909    1.000
    N4875    N        0.86008    0.31916    0.54496    1.000
    Si4876   Si       0.91308    0.31028    0.58404    1.000
    N4877    N        0.91492    0.33165    0.50292    1.000
    N4878    N        0.88698    0.33935    0.60878    1.000
    Si4879   Si       0.94558    0.33651    0.53244    1.000
    Si4880   Si       0.96494    0.34231    0.60006    1.000
    N4881    N        0.93281    0.35429    0.57040    1.000
    N4882    N        0.97809    0.35697    0.51544    1.000
    Si4883   Si       0.77571    0.32957    0.66616    1.000
    N4884    N        0.81977    0.33570    0.67416    1.000
    N4885    N        0.75451    0.33875    0.70248    1.000
    Si4886   Si       0.84878    0.31795    0.69825    1.000
    Si4887   Si       0.84858    0.33305    0.63063    1.000
    N4888    N        0.76223    0.34662    0.62857    1.000
    N4889    N        0.94181    0.31087    0.61805    1.000
    Si4890   Si       0.91083    0.32413    0.64903    1.000
    N4891    N        0.87271    0.34975    0.71465    1.000
    N4892    N        0.87235    0.30315    0.66192    1.000
    N4893    N        0.95629    0.31827    0.74972    1.000
    N4894    N        0.80422    0.32546    0.77383    1.000
    N4895    N        0.77201    0.31266    0.83555    1.000
    Si4896   Si       0.78183    0.35410    0.84591    1.000
    Si4897   Si       0.84230    0.30527    0.76864    1.000
    N4898    N        0.87696    0.33005    0.77843    1.000
    Si4899   Si       0.89579    0.33564    0.81705    1.000
    Si4900   Si       0.96839    0.34918    0.77940    1.000
    N4901    N        0.93263    0.35603    0.80738    1.000
    N4902    N        0.74558    0.33590    0.91617    1.000
    N4903    N        0.79820    0.33453    0.95875    1.000
    Si4904   Si       0.78881    0.33105    0.91652    1.000
    Si4905   Si       0.83822    0.34329    0.98066    1.000
    N4906    N        0.85915    0.30573    0.97044    1.000
    Si4907   Si       0.78334    0.31294    0.99491    1.000
    N4908    N        0.91834    0.31504    0.95099    1.000
    Si4909   Si       0.93769    0.35011    0.96863    1.000
    N4910    N        0.97470    0.33292    0.98400    1.000
    N4911    N        0.90694    0.34537    0.89060    1.000
    N4912    N        0.97868    0.33661    0.87830    1.000
    Si4913   Si       0.88080    0.32930    0.93189    1.000
    Si4914   Si       0.80931    0.39516    0.02266    1.000
    N4915    N        0.80905    0.37546    0.06146    1.000
    Si4916   Si       0.81842    0.40544    0.09139    1.000
    N4917    N        0.84515    0.38232    0.00262    1.000
    Si4918   Si       0.73903    0.36929    0.01021    1.000
    Si4919   Si       0.92988    0.36167    0.11144    1.000
    Si4920   Si       0.88960    0.41272    0.10916    1.000
    Si4921   Si       0.95209    0.38140    0.03081    1.000
    N4922    N        0.93817    0.36777    0.07054    1.000
    N4923    N        0.88673    0.36902    0.11243    1.000
    Si4924   Si       0.88565    0.40462    0.99916    1.000
    N4925    N        0.92002    0.37661    0.99855    1.000
    N4926    N        0.74105    0.37723    0.13990    1.000
    N4927    N        0.81559    0.37849    0.12823    1.000
    Si4928   Si       0.77942    0.36971    0.15644    1.000
    N4929    N        0.83811    0.39269    0.18997    1.000
    Si4930   Si       0.80385    0.39853    0.21598    1.000
    N4931    N        0.78149    0.40929    0.17844    1.000
    Si4932   Si       0.82275    0.41550    0.15296    1.000
    N4933    N        0.80440    0.36694    0.24683    1.000
    N4934    N        0.94679    0.39092    0.13849    1.000
    Si4935   Si       0.94594    0.37869    0.18187    1.000
    N4936    N        0.90443    0.37088    0.18588    1.000
    N4937    N        0.96202    0.40240    0.21184    1.000
    Si4938   Si       0.87960    0.40548    0.18272    1.000
    N4939    N        0.79285    0.38917    0.31177    1.000
    Si4940   Si       0.82417    0.37799    0.28336    1.000
    N4941    N        0.85163    0.41164    0.28214    1.000
    N4942    N        0.84875    0.36265    0.36776    1.000
    N4943    N        0.96872    0.36314    0.29840    1.000
    Si4944   Si       0.92622    0.36763    0.29322    1.000
    N4945    N        0.91673    0.40220    0.26916    1.000
    N4946    N        0.90570    0.38309    0.32956    1.000
    Si4947   Si       0.88018    0.39058    0.36373    1.000
    Si4948   Si       0.88931    0.41898    0.30490    1.000
    Si4949   Si       0.81651    0.37184    0.39737    1.000
    N4950    N        0.77874    0.37857    0.37784    1.000
    N4951    N        0.83605    0.40937    0.41552    1.000
    N4952    N        0.73816    0.40306    0.43378    1.000
    Si4953   Si       0.94280    0.42220    0.39559    1.000
    Si4954   Si       0.98349    0.36654    0.47384    1.000
    N4955    N        0.90432    0.40167    0.39858    1.000
    N4956    N        0.98003    0.39983    0.39860    1.000
    Si4957   Si       0.93172    0.41592    0.46891    1.000
    N4958    N        0.88775    0.42221    0.46611    1.000
    N4959    N        0.94399    0.37453    0.46183    1.000
    Si4960   Si       0.87606    0.39878    0.43093    1.000
    Si4961   Si       0.82774    0.39608    0.59193    1.000
    Si4962   Si       0.77159    0.38327    0.56422    1.000
    N4963    N        0.77531    0.40802    0.60002    1.000
    N4964    N        0.77409    0.41727    0.53818    1.000
    N4965    N        0.83835    0.36653    0.49722    1.000
    N4966    N        0.81042    0.36725    0.56485    1.000
    N4967    N        0.86708    0.39306    0.56354    1.000
    Si4968   Si       0.89944    0.37538    0.58839    1.000
    N4969    N        0.92064    0.40949    0.60909    1.000
    N4970    N        0.83839    0.37619    0.62834    1.000
    Si4971   Si       0.75739    0.38980    0.63404    1.000
    N4972    N        0.85513    0.40638    0.68323    1.000
    Si4973   Si       0.82370    0.38026    0.66913    1.000
    N4974    N        0.78112    0.39228    0.67065    1.000
    Si4975   Si       0.75910    0.38219    0.70796    1.000
    N4976    N        0.77788    0.39148    0.74619    1.000
    Si4977   Si       0.93861    0.39567    0.64715    1.000
    N4978    N        0.96920    0.36891    0.63396    1.000
    N4979    N        0.91004    0.36592    0.66307    1.000
    Si4980   Si       0.89301    0.38557    0.69637    1.000
    N4981    N        0.90281    0.39772    0.73824    1.000
    N4982    N        0.84393    0.38530    0.77124    1.000
    N4983    N        0.80165    0.38132    0.81576    1.000
    Si4984   Si       0.84538    0.39609    0.81494    1.000
    Si4985   Si       0.77187    0.41213    0.82847    1.000
    Si4986   Si       0.80254    0.36896    0.77427    1.000
    N4987    N        0.74427    0.38125    0.84533    1.000
    N4988    N        0.87257    0.37076    0.83554    1.000
    Si4989   Si       0.94630    0.39607    0.82307    1.000
    N4990    N        0.93846    0.39772    0.86699    1.000
    Si4991   Si       0.93798    0.41650    0.75436    1.000
    N4992    N        0.98808    0.38460    0.81374    1.000
    Si4993   Si       0.87737    0.36596    0.75490    1.000
    N4994    N        0.96716    0.38502    0.75014    1.000
    N4995    N        0.75995    0.40188    0.92665    1.000
    Si4996   Si       0.79367    0.40201    0.89835    1.000
    Si4997   Si       0.86157    0.40759    0.93418    1.000
    N4998    N        0.79840    0.36115    0.88559    1.000
    N4999    N        0.77278    0.39523    0.99903    1.000
    N5000    N        0.86038    0.36489    0.94347    1.000
    N5001    N        0.89004    0.41286    0.90301    1.000
    Si5002   Si       0.89249    0.38336    0.87130    1.000
    Si5003   Si       0.94777    0.36271    0.89486    1.000
    N5004    N        0.95297    0.37622    0.93494    1.000
    Si5005   Si       0.97957    0.41008    0.94353    1.000
    Si5006   Si       0.85350    0.45260    0.04543    1.000
    N5007    N        0.81292    0.43593    0.03554    1.000
    Si5008   Si       0.84358    0.46622    0.10635    1.000
    Si5009   Si       0.80151    0.46900    0.01128    1.000
    N5010    N        0.85677    0.42710    0.08350    1.000
    Si5011   Si       0.77078    0.46792    0.11876    1.000
    N5012    N        0.80775    0.44310    0.11764    1.000
    N5013    N        0.73963    0.46720    0.08547    1.000
    N5014    N        0.89119    0.43665    0.03092    1.000
    N5015    N        0.92490    0.43437    0.09167    1.000
    Si5016   Si       0.92847    0.44724    0.05029    1.000
    N5017    N        0.95977    0.42577    0.03051    1.000
    Si5018   Si       0.95740    0.42803    0.11919    1.000
    N5019    N        0.81036    0.43704    0.23493    1.000
    N5020    N        0.75044    0.46778    0.21101    1.000
    Si5021   Si       0.74524    0.43538    0.18374    1.000
    Si5022   Si       0.78173    0.46882    0.24114    1.000
    Si5023   Si       0.89265    0.47228    0.21859    1.000
    N5024    N        0.86737    0.42520    0.14539    1.000
    N5025    N        0.93385    0.46802    0.23076    1.000
    Si5026   Si       0.94084    0.42637    0.24275    1.000
    N5027    N        0.88307    0.42985    0.21625    1.000
    N5028    N        0.95892    0.46121    0.14726    1.000
    N5029    N        0.76407    0.45344    0.27566    1.000
    Si5030   Si       0.83497    0.45987    0.34614    1.000
    N5031    N        0.79273    0.45166    0.34052    1.000
    Si5032   Si       0.77011    0.42663    0.31100    1.000
    Si5033   Si       0.85109    0.43546    0.24720    1.000
    Si5034   Si       0.76950    0.46232    0.37639    1.000
    N5035    N        0.86375    0.42743    0.34587    1.000
    N5036    N        0.86419    0.47568    0.25488    1.000
    N5037    N        0.91264    0.45772    0.31062    1.000
    N5038    N        0.97944    0.43093    0.26655    1.000
    Si5039   Si       0.93988    0.47888    0.34024    1.000
    Si5040   Si       0.82593    0.45252    0.41818    1.000
    N5041    N        0.78373    0.45283    0.41666    1.000
    N5042    N        0.76451    0.44670    0.48286    1.000
    Si5043   Si       0.74940    0.44627    0.44219    1.000
    N5044    N        0.84036    0.47267    0.45234    1.000
    Si5045   Si       0.86549    0.45385    0.48368    1.000
    N5046    N        0.89636    0.48131    0.49083    1.000
    Si5047   Si       0.94967    0.47700    0.42009    1.000
    N5048    N        0.94567    0.46173    0.37897    1.000
    N5049    N        0.95114    0.43838    0.43805    1.000
    N5050    N        0.82793    0.43883    0.58403    1.000
    N5051    N        0.83800    0.45025    0.51691    1.000
    Si5052   Si       0.78294    0.44490    0.57700    1.000
    Si5053   Si       0.83467    0.47264    0.61097    1.000
    Si5054   Si       0.79412    0.46490    0.51234    1.000
    Si5055   Si       0.85820    0.43660    0.55358    1.000
    Si5056   Si       0.74055    0.42269    0.51161    1.000
    N5057    N        0.76992    0.47776    0.54873    1.000
    Si5058   Si       0.92308    0.46506    0.52181    1.000
    N5059    N        0.89845    0.45601    0.55598    1.000
    N5060    N        0.96938    0.45507    0.58063    1.000
    N5061    N        0.94731    0.43319    0.50672    1.000
    Si5062   Si       0.92862    0.44631    0.59038    1.000
    N5063    N        0.74863    0.45938    0.73154    1.000
    N5064    N        0.80620    0.46257    0.68809    1.000
    Si5065   Si       0.84709    0.44919    0.68248    1.000
    N5066    N        0.86006    0.46431    0.64434    1.000
    Si5067   Si       0.77711    0.47469    0.65971    1.000
    N5068    N        0.86053    0.47566    0.71367    1.000
    Si5069   Si       0.81823    0.48180    0.72586    1.000
    N5070    N        0.94759    0.45717    0.74015    1.000
    N5071    N        0.93491    0.42052    0.68001    1.000
    N5072    N        0.98892    0.46617    0.68537    1.000
    Si5073   Si       0.94699    0.45930    0.69555    1.000
    N5074    N        0.81091    0.45641    0.75978    1.000
    Si5075   Si       0.77231    0.43322    0.75536    1.000
    N5076    N        0.75830    0.43457    0.79646    1.000
    Si5077   Si       0.82873    0.46923    0.79712    1.000
    Si5078   Si       0.78342    0.46941    0.86266    1.000
    N5079    N        0.85682    0.43811    0.81143    1.000
    N5080    N        0.78930    0.42697    0.86467    1.000
    N5081    N        0.74309    0.47108    0.84952    1.000
    Si5082   Si       0.89939    0.45320    0.81073    1.000
    N5083    N        0.90422    0.46078    0.85202    1.000
    N5084    N        0.92863    0.42524    0.79709    1.000
    N5085    N        0.78562    0.45723    0.97076    1.000
    Si5086   Si       0.80916    0.46435    0.93531    1.000
    N5087    N        0.82305    0.42340    0.92291    1.000
    Si5088   Si       0.75848    0.42154    0.96528    1.000
    Si5089   Si       0.93375    0.47910    0.94692    1.000
    Si5090   Si       0.86871    0.47499    0.97264    1.000
    N5091    N        0.96427    0.46422    0.88302    1.000
    N5092    N        0.95374    0.44328    0.95858    1.000
    Si5093   Si       0.92285    0.43838    0.88602    1.000
    N5094    N        0.87567    0.43082    0.96774    1.000
    N5095    N        0.90916    0.47470    0.91306    1.000
    Si5096   Si       0.97780    0.44277    0.99628    1.000
    Si5097   Si       0.85179    0.51586    0.03598    1.000
    N5098    N        0.84591    0.48925    0.06857    1.000
    N5099    N        0.76267    0.48577    0.02239    1.000
    N5100    N        0.84465    0.48326    0.00780    1.000
    N5101    N        0.89158    0.53765    0.03556    1.000
    Si5102   Si       0.92272    0.51529    0.01278    1.000
    Si5103   Si       0.94960    0.51090    0.08262    1.000
    N5104    N        0.93684    0.48869    0.04726    1.000
    N5105    N        0.92494    0.51362    0.11832    1.000
    Si5106   Si       0.79664    0.53825    0.20329    1.000
    N5107    N        0.78075    0.50814    0.12827    1.000
    N5108    N        0.84946    0.49934    0.13288    1.000
    N5109    N        0.80469    0.50362    0.22703    1.000
    Si5110   Si       0.81988    0.52948    0.13139    1.000
    N5111    N        0.75585    0.53379    0.18756    1.000
    Si5112   Si       0.74970    0.53487    0.14424    1.000
    Si5113   Si       0.95400    0.50821    0.22472    1.000
    N5114    N        0.96053    0.51344    0.18196    1.000
    Si5115   Si       0.92953    0.49264    0.15642    1.000
    N5116    N        0.89402    0.49165    0.18058    1.000
    Si5117   Si       0.86861    0.52982    0.17930    1.000
    N5118    N        0.85345    0.49077    0.32303    1.000
    Si5119   Si       0.84221    0.53252    0.32107    1.000
    Si5120   Si       0.84180    0.51460    0.24798    1.000
    N5121    N        0.82774    0.53522    0.28221    1.000
    N5122    N        0.81000    0.53406    0.35096    1.000
    N5123    N        0.75367    0.50219    0.36871    1.000
    N5124    N        0.91688    0.51391    0.35274    1.000
    N5125    N        0.89907    0.52481    0.28399    1.000
    Si5126   Si       0.88413    0.48517    0.29319    1.000
    N5127    N        0.98120    0.48300    0.32443    1.000
    Si5128   Si       0.98476    0.51522    0.29468    1.000
    N5129    N        0.98788    0.50097    0.25215    1.000
    Si5130   Si       0.82957    0.51479    0.46245    1.000
    Si5131   Si       0.83224    0.52489    0.38842    1.000
    N5132    N        0.81471    0.53662    0.42753    1.000
    N5133    N        0.86213    0.53804    0.47858    1.000
    N5134    N        0.83369    0.48117    0.38545    1.000
    N5135    N        0.98168    0.50452    0.42815    1.000
    N5136    N        0.91295    0.50029    0.42909    1.000
    Si5137   Si       0.90915    0.52501    0.39335    1.000
    Si5138   Si       0.89719    0.51728    0.46742    1.000
    N5139    N        0.85479    0.50365    0.58858    1.000
    Si5140   Si       0.77162    0.53201    0.50377    1.000
    N5141    N        0.79009    0.48073    0.61533    1.000
    N5142    N        0.80350    0.50479    0.49650    1.000
    Si5143   Si       0.89616    0.49827    0.57284    1.000
    N5144    N        0.94535    0.49852    0.53517    1.000
    Si5145   Si       0.98192    0.48861    0.55660    1.000
    N5146    N        0.91542    0.48425    0.61038    1.000
    Si5147   Si       0.95492    0.53548    0.51313    1.000
    Si5148   Si       0.77455    0.51985    0.62097    1.000
    N5149    N        0.77354    0.51981    0.66505    1.000
    N5150    N        0.80653    0.52227    0.72992    1.000
    Si5151   Si       0.77123    0.53554    0.70436    1.000
    N5152    N        0.91957    0.48613    0.67888    1.000
    N5153    N        0.89279    0.52806    0.73904    1.000
    N5154    N        0.88018    0.53030    0.66545    1.000
    Si5155   Si       0.88981    0.50669    0.70325    1.000
    Si5156   Si       0.89193    0.49336    0.64490    1.000
    Si5157   Si       0.83752    0.51857    0.83958    1.000
    N5158    N        0.80795    0.48779    0.83214    1.000
    N5159    N        0.85430    0.50575    0.79935    1.000
    Si5160   Si       0.89109    0.52246    0.78134    1.000
    Si5161   Si       0.95493    0.48786    0.76923    1.000
    N5162    N        0.91741    0.48888    0.79079    1.000
    N5163    N        0.96673    0.53309    0.75737    1.000
    N5164    N        0.98691    0.49418    0.80188    1.000
    N5165    N        0.93478    0.52803    0.86914    1.000
    Si5166   Si       0.77612    0.52562    0.91269    1.000
    N5167    N        0.77821    0.52005    0.95588    1.000
    N5168    N        0.84340    0.49066    0.94015    1.000
    Si5169   Si       0.84784    0.52605    0.91459    1.000
    Si5170   Si       0.75769    0.49147    0.97897    1.000
    N5171    N        0.78655    0.48358    0.90233    1.000
    N5172    N        0.74038    0.53303    0.88770    1.000
    Si5173   Si       0.96647    0.50922    0.89157    1.000
    N5174    N        0.86169    0.51491    0.87491    1.000
    N5175    N        0.96528    0.50830    0.93418    1.000
    Si5176   Si       0.98830    0.51955    0.97200    1.000
    Si5177   Si       0.90261    0.49892    0.87483    1.000
    N5178    N        0.90682    0.49246    0.97848    1.000
    Si5179   Si       0.78808    0.58595    0.09693    1.000
    Si5180   Si       0.78573    0.56920    0.02030    1.000
    N5181    N        0.74521    0.55287    0.01245    1.000
    N5182    N        0.82510    0.56534    0.10814    1.000
    N5183    N        0.77631    0.59252    0.05634    1.000
    N5184    N        0.81896    0.54262    0.02659    1.000
    Si5185   Si       0.98176    0.58314    0.06065    1.000
    N5186    N        0.89939    0.57936    0.10070    1.000
    Si5187   Si       0.90925    0.56641    0.06020    1.000
    N5188    N        0.95143    0.55312    0.06802    1.000
    N5189    N        0.98697    0.59176    0.01833    1.000
    N5190    N        0.76338    0.57320    0.13097    1.000
    N5191    N        0.79743    0.56900    0.23224    1.000
    N5192    N        0.82666    0.54396    0.17263    1.000
    Si5193   Si       0.95257    0.58965    0.22648    1.000
    N5194    N        0.89428    0.56088    0.16142    1.000
    Si5195   Si       0.98269    0.55059    0.17331    1.000
    Si5196   Si       0.92185    0.55629    0.12816    1.000
    N5197    N        0.95993    0.57146    0.14251    1.000
    N5198    N        0.93694    0.54957    0.23491    1.000
    N5199    N        0.86994    0.53490    0.22368    1.000
    Si5200   Si       0.79461    0.56188    0.27672    1.000
    N5201    N        0.76355    0.54962    0.30254    1.000
    Si5202   Si       0.76823    0.53847    0.34498    1.000
    N5203    N        0.87219    0.56521    0.32359    1.000
    Si5204   Si       0.96721    0.57964    0.33676    1.000
    N5205    N        0.92641    0.58265    0.34954    1.000
    N5206    N        0.95749    0.54636    0.30895    1.000
    Si5207   Si       0.91419    0.54596    0.32028    1.000
    Si5208   Si       0.87866    0.58544    0.36421    1.000
    Si5209   Si       0.89747    0.55376    0.25141    1.000
    N5210    N        0.88312    0.59326    0.26572    1.000
    Si5211   Si       0.79656    0.57552    0.43541    1.000
    N5212    N        0.78274    0.56575    0.47815    1.000
    N5213    N        0.76177    0.59596    0.41860    1.000
    N5214    N        0.93213    0.54477    0.47754    1.000
    Si5215   Si       0.96133    0.54066    0.44085    1.000
    N5216    N        0.93495    0.55744    0.40927    1.000
    Si5217   Si       0.92009    0.58761    0.48329    1.000
    N5218    N        0.87011    0.54772    0.38852    1.000
    Si5219   Si       0.79301    0.56628    0.56064    1.000
    N5220    N        0.78747    0.55802    0.60357    1.000
    N5221    N        0.83254    0.55466    0.54591    1.000
    Si5222   Si       0.85450    0.56790    0.50999    1.000
    Si5223   Si       0.85864    0.54648    0.57863    1.000
    N5224    N        0.75990    0.54292    0.54569    1.000
    N5225    N        0.86360    0.57363    0.61031    1.000
    N5226    N        0.95696    0.56777    0.54340    1.000
    Si5227   Si       0.91722    0.57894    0.55371    1.000
    N5228    N        0.89348    0.58969    0.51897    1.000
    N5229    N        0.97628    0.57586    0.61388    1.000
    N5230    N        0.89870    0.54026    0.56340    1.000
    Si5231   Si       0.98917    0.56264    0.57389    1.000
    Si5232   Si       0.81395    0.56467    0.74021    1.000
    N5233    N        0.85095    0.58030    0.72633    1.000
    N5234    N        0.78276    0.57632    0.70722    1.000
    N5235    N        0.92737    0.58366    0.73107    1.000
    Si5236   Si       0.88111    0.57079    0.65160    1.000
    Si5237   Si       0.94447    0.58340    0.69018    1.000
    N5238    N        0.98103    0.55977    0.68621    1.000
    N5239    N        0.92204    0.58377    0.65373    1.000
    N5240    N        0.83448    0.55990    0.83704    1.000
    N5241    N        0.79805    0.59160    0.76938    1.000
    Si5242   Si       0.86834    0.58338    0.82295    1.000
    N5243    N        0.89018    0.56608    0.78970    1.000
    N5244    N        0.96508    0.56568    0.81247    1.000
    Si5245   Si       0.94153    0.57176    0.84875    1.000
    Si5246   Si       0.95726    0.58088    0.76747    1.000
    N5247    N        0.90220    0.59249    0.85118    1.000
    Si5248   Si       0.88881    0.57272    0.74547    1.000
    Si5249   Si       0.81361    0.57906    0.87023    1.000
    N5250    N        0.81151    0.55033    0.90105    1.000
    N5251    N        0.95402    0.53966    0.99374    1.000
    N5252    N        0.87467    0.55310    0.93439    1.000
    Si5253   Si       0.95436    0.58260    0.98880    1.000
    N5254    N        0.97274    0.59096    0.95046    1.000
    N5255    N        0.96882    0.59452    0.88169    1.000
    N5256    N        0.84973    0.62576    0.02073    1.000
    N5257    N        0.80056    0.62301    0.11694    1.000
    N5258    N        0.85982    0.63095    0.08996    1.000
    N5259    N        0.74248    0.65072    0.02296    1.000
    N5260    N        0.74353    0.63978    0.09117    1.000
    Si5261   Si       0.74292    0.61872    0.05191    1.000
    Si5262   Si       0.84454    0.60420    0.12081    1.000
    Si5263   Si       0.90342    0.62402    0.08999    1.000
    N5264    N        0.97113    0.61614    0.08463    1.000
    Si5265   Si       0.89273    0.62425    0.01005    1.000
    N5266    N        0.90953    0.60570    0.04524    1.000
    N5267    N        0.76029    0.62872    0.23605    1.000
    Si5268   Si       0.80065    0.61133    0.22729    1.000
    Si5269   Si       0.83294    0.64481    0.18116    1.000
    N5270    N        0.83993    0.63404    0.22411    1.000
    Si5271   Si       0.77234    0.61066    0.14994    1.000
    N5272    N        0.79601    0.62138    0.18419    1.000
    N5273    N        0.85869    0.61811    0.15901    1.000
    Si5274   Si       0.75667    0.65412    0.19855    1.000
    Si5275   Si       0.90058    0.60360    0.16495    1.000
    Si5276   Si       0.93395    0.64752    0.22036    1.000
    N5277    N        0.92110    0.60951    0.20311    1.000
    N5278    N        0.92639    0.62606    0.13530    1.000
    Si5279   Si       0.96743    0.61098    0.12689    1.000
    Si5280   Si       0.78103    0.61916    0.31495    1.000
    N5281    N        0.85736    0.64475    0.29281    1.000
    N5282    N        0.84708    0.61386    0.35157    1.000
    N5283    N        0.78340    0.60076    0.35370    1.000
    Si5284   Si       0.85168    0.60231    0.30482    1.000
    N5285    N        0.73855    0.61581    0.30232    1.000
    N5286    N        0.81047    0.59916    0.28998    1.000
    Si5287   Si       0.97790    0.64341    0.28488    1.000
    N5288    N        0.97605    0.61712    0.31857    1.000
    Si5289   Si       0.87134    0.63299    0.25260    1.000
    N5290    N        0.96236    0.62548    0.24980    1.000
    Si5291   Si       0.81424    0.61988    0.37921    1.000
    N5292    N        0.76415    0.62973    0.47947    1.000
    N5293    N        0.82657    0.60478    0.41900    1.000
    Si5294   Si       0.74845    0.59921    0.37705    1.000
    Si5295   Si       0.73679    0.61645    0.44777    1.000
    N5296    N        0.83731    0.60418    0.49531    1.000
    N5297    N        0.97401    0.61385    0.38590    1.000
    N5298    N        0.89800    0.61742    0.39273    1.000
    N5299    N        0.95847    0.60332    0.48639    1.000
    N5300    N        0.89200    0.61109    0.45830    1.000
    Si5301   Si       0.86391    0.62377    0.42516    1.000
    Si5302   Si       0.93526    0.59540    0.39183    1.000
    Si5303   Si       0.78647    0.63466    0.56910    1.000
    N5304    N        0.81457    0.62104    0.60045    1.000
    N5305    N        0.75268    0.62211    0.59305    1.000
    N5306    N        0.78904    0.60305    0.54028    1.000
    Si5307   Si       0.79301    0.60374    0.49810    1.000
    Si5308   Si       0.78090    0.59873    0.61977    1.000
    N5309    N        0.92103    0.61120    0.58112    1.000
    Si5310   Si       0.90171    0.64791    0.57185    1.000
    Si5311   Si       0.98171    0.63654    0.50393    1.000
    N5312    N        0.87750    0.65144    0.53701    1.000
    Si5313   Si       0.87428    0.62797    0.49892    1.000
    N5314    N        0.87601    0.65093    0.60846    1.000
    Si5315   Si       0.85320    0.61588    0.62012    1.000
    N5316    N        0.82167    0.64292    0.72278    1.000
    N5317    N        0.76352    0.61811    0.65422    1.000
    N5318    N        0.75424    0.63549    0.72405    1.000
    Si5319   Si       0.85345    0.61907    0.70500    1.000
    Si5320   Si       0.75509    0.60518    0.69437    1.000
    N5321    N        0.85894    0.60680    0.66297    1.000
    Si5322   Si       0.97550    0.65106    0.66781    1.000
    Si5323   Si       0.94348    0.60352    0.61754    1.000
    N5324    N        0.88737    0.64028    0.72342    1.000
    N5325    N        0.95650    0.64297    0.63045    1.000
    Si5326   Si       0.92941    0.63231    0.73152    1.000
    N5327    N        0.95330    0.62660    0.69662    1.000
    N5328    N        0.84733    0.62015    0.81381    1.000
    Si5329   Si       0.80308    0.61627    0.80713    1.000
    N5330    N        0.78703    0.60731    0.84983    1.000
    N5331    N        0.78285    0.65101    0.78731    1.000
    Si5332   Si       0.78903    0.62952    0.74744    1.000
    N5333    N        0.95376    0.62609    0.77026    1.000
    N5334    N        0.84498    0.60744    0.88554    1.000
    Si5335   Si       0.82756    0.62824    0.91918    1.000
    N5336    N        0.84919    0.61415    0.95453    1.000
    Si5337   Si       0.75843    0.60769    0.95136    1.000
    Si5338   Si       0.76021    0.62497    0.88011    1.000
    N5339    N        0.78393    0.61954    0.91754    1.000
    Si5340   Si       0.82286    0.62409    0.98678    1.000
    N5341    N        0.78692    0.59790    0.98664    1.000
    N5342    N        0.91149    0.59922    0.97995    1.000
    N5343    N        0.91082    0.61547    0.91507    1.000
    Si5344   Si       0.95501    0.61633    0.91635    1.000
    Si5345   Si       0.88517    0.62285    0.87734    1.000
    Si5346   Si       0.88704    0.59233    0.94425    1.000
    Si5347   Si       0.78092    0.67185    0.01819    1.000
    N5348    N        0.79968    0.66518    0.05828    1.000
    Si5349   Si       0.78266    0.65930    0.09716    1.000
    Si5350   Si       0.84280    0.65126    0.05576    1.000
    N5351    N        0.86067    0.69090    0.05267    1.000
    Si5352   Si       0.90383    0.68712    0.04665    1.000
    Si5353   Si       0.97326    0.70191    0.02303    1.000
    N5354    N        0.90709    0.66713    0.00811    1.000
    N5355    N        0.92126    0.66281    0.07737    1.000
    N5356    N        0.97078    0.67695    0.11922    1.000
    Si5357   Si       0.96401    0.65918    0.08042    1.000
    N5358    N        0.98863    0.67089    0.04797    1.000
    N5359    N        0.78276    0.69321    0.12423    1.000
    N5360    N        0.84136    0.68416    0.16527    1.000
    Si5361   Si       0.79968    0.70637    0.16314    1.000
    Si5362   Si       0.78967    0.70458    0.23935    1.000
    N5363    N        0.78923    0.68391    0.20165    1.000
    Si5364   Si       0.74474    0.71525    0.12455    1.000
    N5365    N        0.90125    0.66211    0.24379    1.000
    Si5366   Si       0.93825    0.66851    0.14620    1.000
    N5367    N        0.95150    0.66989    0.18791    1.000
    Si5368   Si       0.97868    0.70344    0.19398    1.000
    N5369    N        0.90931    0.69850    0.14081    1.000
    Si5370   Si       0.76062    0.69473    0.30555    1.000
    N5371    N        0.83929    0.69013    0.34482    1.000
    Si5372   Si       0.83024    0.67598    0.30488    1.000
    N5373    N        0.82055    0.70097    0.27034    1.000
    N5374    N        0.78802    0.66223    0.31185    1.000
    N5375    N        0.75527    0.70761    0.26435    1.000
    Si5376   Si       0.89781    0.70419    0.25858    1.000
    N5377    N        0.96068    0.68156    0.29815    1.000
    N5378    N        0.91176    0.68235    0.35287    1.000
    Si5379   Si       0.95103    0.69491    0.33755    1.000
    Si5380   Si       0.87957    0.70794    0.33870    1.000
    N5381    N        0.98258    0.67959    0.36156    1.000
    N5382    N        0.87847    0.71451    0.29766    1.000
    N5383    N        0.79386    0.65987    0.38975    1.000
    Si5384   Si       0.75750    0.67095    0.47004    1.000
    N5385    N        0.79447    0.68961    0.46557    1.000
    Si5386   Si       0.82696    0.68604    0.38660    1.000
    Si5387   Si       0.75055    0.66933    0.39426    1.000
    N5388    N        0.85910    0.66570    0.40864    1.000
    N5389    N        0.74616    0.71330    0.39095    1.000
    Si5390   Si       0.87892    0.68731    0.44286    1.000
    N5391    N        0.91832    0.68177    0.42296    1.000
    N5392    N        0.97099    0.67445    0.48892    1.000
    Si5393   Si       0.90108    0.66077    0.38724    1.000
    N5394    N        0.86680    0.66748    0.47877    1.000
    N5395    N        0.77763    0.66784    0.54194    1.000
    Si5396   Si       0.79338    0.70788    0.53985    1.000
    Si5397   Si       0.75261    0.70820    0.59694    1.000
    N5398    N        0.82954    0.70942    0.51810    1.000
    Si5399   Si       0.86679    0.68858    0.51659    1.000
    N5400    N        0.93317    0.68022    0.57447    1.000
    Si5401   Si       0.97676    0.68349    0.56479    1.000
    N5402    N        0.98644    0.69657    0.60494    1.000
    Si5403   Si       0.94690    0.68214    0.61845    1.000
    Si5404   Si       0.96987    0.71640    0.49773    1.000
    N5405    N        0.85105    0.68155    0.67272    1.000
    Si5406   Si       0.82986    0.68299    0.70898    1.000
    N5407    N        0.74779    0.68197    0.63213    1.000
    N5408    N        0.85844    0.70398    0.73583    1.000
    N5409    N        0.79773    0.70909    0.69947    1.000
    N5410    N        0.96647    0.69306    0.67777    1.000
    N5411    N        0.91454    0.70502    0.63659    1.000
    Si5412   Si       0.97135    0.69238    0.72298    1.000
    Si5413   Si       0.87367    0.68334    0.63668    1.000
    N5414    N        0.93479    0.68040    0.74514    1.000
    Si5415   Si       0.76137    0.68823    0.78810    1.000
    N5416    N        0.83793    0.69155    0.81573    1.000
    N5417    N        0.80821    0.71090    0.87083    1.000
    N5418    N        0.74799    0.69776    0.74574    1.000
    Si5419   Si       0.86503    0.65959    0.82106    1.000
    N5420    N        0.96058    0.68842    0.81112    1.000
    N5421    N        0.89463    0.66420    0.78996    1.000
    Si5422   Si       0.93779    0.66316    0.78720    1.000
    Si5423   Si       0.88933    0.67661    0.74818    1.000
    N5424    N        0.87457    0.66197    0.86398    1.000
    N5425    N        0.75268    0.66747    0.87935    1.000
    Si5426   Si       0.84594    0.69285    0.88462    1.000
    N5427    N        0.80367    0.66291    0.98358    1.000
    N5428    N        0.82908    0.67186    0.91888    1.000
    Si5429   Si       0.80925    0.69244    0.95167    1.000
    Si5430   Si       0.77193    0.70578    0.89266    1.000
    N5431    N        0.77301    0.71362    0.93614    1.000
    N5432    N        0.89876    0.70705    0.94156    1.000
    Si5433   Si       0.91730    0.69762    0.98021    1.000
    N5434    N        0.96006    0.69229    0.98242    1.000
    N5435    N        0.94092    0.70051    0.87742    1.000
    Si5436   Si       0.97889    0.68509    0.89141    1.000
    N5437    N        0.97689    0.65426    0.92247    1.000
    N5438    N        0.81908    0.75172    0.04462    1.000
    Si5439   Si       0.85038    0.73137    0.06599    1.000
    Si5440   Si       0.80351    0.74194    0.00444    1.000
    N5441    N        0.85688    0.73522    0.11014    1.000
    N5442    N        0.76837    0.71447    0.01130    1.000
    N5443    N        0.74097    0.74801    0.09772    1.000
    Si5444   Si       0.91797    0.75290    0.03060    1.000
    N5445    N        0.88584    0.75571    0.05880    1.000
    Si5446   Si       0.89062    0.76851    0.09972    1.000
    N5447    N        0.93072    0.76292    0.11744    1.000
    N5448    N        0.93561    0.71588    0.04126    1.000
    Si5449   Si       0.83519    0.77067    0.13099    1.000
    N5450    N        0.81296    0.75091    0.16098    1.000
    Si5451   Si       0.77846    0.76374    0.18298    1.000
    N5452    N        0.79307    0.74430    0.22338    1.000
    N5453    N        0.75548    0.72854    0.16691    1.000
    Si5454   Si       0.86796    0.71310    0.14590    1.000
    Si5455   Si       0.92483    0.73846    0.15182    1.000
    Si5456   Si       0.87880    0.76511    0.20852    1.000
    N5457    N        0.87348    0.73436    0.23863    1.000
    N5458    N        0.88452    0.74755    0.16972    1.000
    N5459    N        0.95374    0.73697    0.18292    1.000
    N5460    N        0.76197    0.73201    0.32998    1.000
    Si5461   Si       0.84634    0.73582    0.27316    1.000
    Si5462   Si       0.78725    0.76670    0.31659    1.000
    N5463    N        0.82040    0.77081    0.28216    1.000
    N5464    N        0.82352    0.77113    0.34247    1.000
    N5465    N        0.94402    0.73648    0.33729    1.000
    N5466    N        0.93455    0.72850    0.26053    1.000
    Si5467   Si       0.91864    0.75675    0.36579    1.000
    N5468    N        0.87847    0.74253    0.36523    1.000
    Si5469   Si       0.96901    0.76749    0.31657    1.000
    Si5470   Si       0.91556    0.76649    0.26627    1.000
    Si5471   Si       0.97454    0.71495    0.27064    1.000
    N5472    N        0.81696    0.72706    0.39904    1.000
    Si5473   Si       0.77621    0.73786    0.41065    1.000
    Si5474   Si       0.84230    0.75907    0.38074    1.000
    Si5475   Si       0.80621    0.72821    0.48197    1.000
    N5476    N        0.77468    0.74730    0.45458    1.000
    Si5477   Si       0.74464    0.75365    0.48625    1.000
    Si5478   Si       0.86109    0.76966    0.44630    1.000
    N5479    N        0.87244    0.72781    0.45365    1.000
    Si5480   Si       0.90098    0.74387    0.48534    1.000
    N5481    N        0.93431    0.75036    0.40534    1.000
    N5482    N        0.94224    0.73404    0.46877    1.000
    Si5483   Si       0.94624    0.71304    0.42825    1.000
    Si5484   Si       0.82195    0.74090    0.60234    1.000
    N5485    N        0.77227    0.73480    0.51531    1.000
    N5486    N        0.79126    0.71986    0.58144    1.000
    N5487    N        0.90136    0.71665    0.51949    1.000
    N5488    N        0.90704    0.75073    0.58210    1.000
    N5489    N        0.96933    0.72140    0.54233    1.000
    Si5490   Si       0.92584    0.72078    0.55652    1.000
    N5491    N        0.85405    0.72021    0.62302    1.000
    Si5492   Si       0.82671    0.72368    0.66562    1.000
    N5493    N        0.76304    0.76910    0.72406    1.000
    N5494    N        0.85121    0.75227    0.68738    1.000
    N5495    N        0.80251    0.74958    0.64083    1.000
    Si5496   Si       0.76131    0.72452    0.71600    1.000
    Si5497   Si       0.86038    0.74622    0.72986    1.000
    Si5498   Si       0.76659    0.76841    0.63206    1.000
    Si5499   Si       0.97532    0.73629    0.67864    1.000
    N5500    N        0.97543    0.73617    0.72407    1.000
    Si5501   Si       0.89410    0.74256    0.62317    1.000
    N5502    N        0.83916    0.75737    0.82816    1.000
    N5503    N        0.77615    0.72503    0.80561    1.000
    Si5504   Si       0.74580    0.75676    0.80085    1.000
    Si5505   Si       0.81226    0.72491    0.82843    1.000
    N5506    N        0.82877    0.76517    0.75708    1.000
    Si5507   Si       0.87565    0.75873    0.85473    1.000
    N5508    N        0.91111    0.74864    0.83218    1.000
    N5509    N        0.97358    0.75144    0.83261    1.000
    Si5510   Si       0.94370    0.71903    0.83772    1.000
    Si5511   Si       0.98111    0.76774    0.75374    1.000
    N5512    N        0.83206    0.72409    0.97430    1.000
    Si5513   Si       0.74274    0.74490    0.94302    1.000
    Si5514   Si       0.97747    0.75615    0.91998    1.000
    N5515    N        0.90055    0.73731    0.99482    1.000
    Si5516   Si       0.87193    0.73685    0.96202    1.000
    Si5517   Si       0.91082    0.72041    0.90217    1.000
    N5518    N        0.93512    0.75630    0.91201    1.000
    N5519    N        0.87287    0.72668    0.88355    1.000
    Si5520   Si       0.80014    0.78774    0.06027    1.000
    N5521    N        0.76059    0.79001    0.04011    1.000
    N5522    N        0.80443    0.78110    0.10239    1.000
    Si5523   Si       0.75307    0.80093    0.99681    1.000
    N5524    N        0.86710    0.79859    0.11925    1.000
    Si5525   Si       0.94348    0.82520    0.01439    1.000
    N5526    N        0.94756    0.78301    0.02049    1.000
    Si5527   Si       0.98679    0.77071    0.00256    1.000
    Si5528   Si       0.78482    0.80984    0.12998    1.000
    N5529    N        0.78669    0.80793    0.21701    1.000
    N5530    N        0.85027    0.79551    0.21653    1.000
    N5531    N        0.75703    0.79282    0.15789    1.000
    Si5532   Si       0.82425    0.82398    0.20033    1.000
    N5533    N        0.81928    0.81942    0.15611    1.000
    Si5534   Si       0.79172    0.77946    0.24914    1.000
    N5535    N        0.98300    0.78847    0.22434    1.000
    Si5536   Si       0.95380    0.79998    0.12331    1.000
    N5537    N        0.94355    0.80323    0.16658    1.000
    Si5538   Si       0.95097    0.77715    0.19957    1.000
    N5539    N        0.91617    0.78105    0.22550    1.000
    N5540    N        0.77407    0.80719    0.32864    1.000
    Si5541   Si       0.84588    0.79371    0.31075    1.000
    Si5542   Si       0.76004    0.80227    0.37218    1.000
    Si5543   Si       0.73865    0.81315    0.29567    1.000
    N5544    N        0.75798    0.77307    0.27873    1.000
    Si5545   Si       0.97378    0.81212    0.25819    1.000
    N5546    N        0.94548    0.79236    0.28622    1.000
    N5547    N        0.92048    0.79613    0.34894    1.000
    Si5548   Si       0.91410    0.81006    0.30944    1.000
    N5549    N        0.88319    0.78506    0.29003    1.000
    Si5550   Si       0.83028    0.83130    0.41596    1.000
    Si5551   Si       0.78516    0.78995    0.45048    1.000
    N5552    N        0.84824    0.79067    0.41039    1.000
    N5553    N        0.75559    0.79625    0.48311    1.000
    N5554    N        0.80028    0.83065    0.44784    1.000
    N5555    N        0.77779    0.78276    0.40639    1.000
    N5556    N        0.82865    0.77138    0.47700    1.000
    Si5557   Si       0.90616    0.81282    0.49618    1.000
    Si5558   Si       0.94218    0.77635    0.44001    1.000
    N5559    N        0.90070    0.78292    0.46375    1.000
    N5560    N        0.93706    0.81648    0.42014    1.000
    Si5561   Si       0.93179    0.82445    0.37858    1.000
    N5562    N        0.94869    0.81855    0.48837    1.000
    N5563    N        0.77763    0.79460    0.59930    1.000
    Si5564   Si       0.81134    0.80519    0.57650    1.000
    N5565    N        0.81513    0.81103    0.53331    1.000
    Si5566   Si       0.84529    0.79972    0.50723    1.000
    Si5567   Si       0.74270    0.82282    0.59523    1.000
    Si5568   Si       0.74269    0.82490    0.51234    1.000
    N5569    N        0.84072    0.77350    0.58132    1.000
    N5570    N        0.89407    0.82186    0.58437    1.000
    N5571    N        0.96009    0.81194    0.60504    1.000
    Si5572   Si       0.88271    0.78363    0.56788    1.000
    Si5573   Si       0.97731    0.82313    0.51991    1.000
    N5574    N        0.88385    0.78380    0.52475    1.000
    N5575    N        0.80350    0.81799    0.72241    1.000
    Si5576   Si       0.76660    0.81171    0.69741    1.000
    N5577    N        0.74582    0.79097    0.66342    1.000
    N5578    N        0.86316    0.82394    0.68602    1.000
    N5579    N        0.89392    0.77255    0.72725    1.000
    Si5580   Si       0.94125    0.79944    0.64455    1.000
    N5581    N        0.96972    0.78244    0.67186    1.000
    N5582    N        0.90553    0.77394    0.65063    1.000
    Si5583   Si       0.87959    0.78404    0.68557    1.000
    N5584    N        0.98687    0.80779    0.73571    1.000
    N5585    N        0.76744    0.79095    0.78468    1.000
    Si5586   Si       0.84211    0.78304    0.79324    1.000
    Si5587   Si       0.77956    0.81645    0.82057    1.000
    N5588    N        0.77339    0.80224    0.86215    1.000
    N5589    N        0.82092    0.82036    0.80606    1.000
    Si5590   Si       0.79304    0.78682    0.74994    1.000
    N5591    N        0.94069    0.81561    0.84168    1.000
    N5592    N        0.88007    0.80560    0.78780    1.000
    Si5593   Si       0.91139    0.79619    0.75892    1.000
    Si5594   Si       0.94136    0.77712    0.81864    1.000
    N5595    N        0.94513    0.77649    0.77545    1.000
    Si5596   Si       0.82997    0.79140    0.96276    1.000
    N5597    N        0.83975    0.82501    0.98897    1.000
    N5598    N        0.81921    0.80362    0.92185    1.000
    Si5599   Si       0.77990    0.81175    0.90440    1.000
    N5600    N        0.75530    0.77823    0.91714    1.000
    N5601    N        0.79400    0.77851    0.98276    1.000
    Si5602   Si       0.86343    0.80541    0.91371    1.000
    N5603    N        0.86667    0.77595    0.94703    1.000
    N5604    N        0.87916    0.79875    0.87471    1.000
    N5605    N        0.98257    0.77564    0.95863    1.000
    Si5606   Si       0.99478    0.81320    0.93797    1.000
    N5607    N        0.84022    0.86826    0.10732    1.000
    Si5608   Si       0.80434    0.85939    0.08267    1.000
    Si5609   Si       0.80835    0.84310    0.01235    1.000
    N5610    N        0.77245    0.84119    0.10456    1.000
    N5611    N        0.81014    0.88538    0.02367    1.000
    N5612    N        0.81471    0.82844    0.05169    1.000
    N5613    N        0.92882    0.85063    0.04707    1.000
    Si5614   Si       0.93222    0.86999    0.08382    1.000
    N5615    N        0.97375    0.88365    0.09131    1.000
    Si5616   Si       0.91765    0.88073    0.00879    1.000
    N5617    N        0.93309    0.83776    0.11310    1.000
    N5618    N        0.98111    0.84138    0.99741    1.000
    Si5619   Si       0.75527    0.83814    0.22168    1.000
    N5620    N        0.84416    0.85955    0.21598    1.000
    N5621    N        0.76651    0.87290    0.20009    1.000
    Si5622   Si       0.85322    0.83563    0.13261    1.000
    Si5623   Si       0.83421    0.89064    0.24611    1.000
    N5624    N        0.95390    0.87067    0.17266    1.000
    N5625    N        0.88448    0.84554    0.16604    1.000
    Si5626   Si       0.92605    0.84474    0.15588    1.000
    Si5627   Si       0.94773    0.87725    0.21676    1.000
    N5628    N        0.97568    0.85111    0.23831    1.000
    N5629    N        0.90733    0.87477    0.23172    1.000
    Si5630   Si       0.88003    0.87223    0.19890    1.000
    N5631    N        0.75478    0.84068    0.26538    1.000
    Si5632   Si       0.80224    0.84342    0.33676    1.000
    N5633    N        0.78131    0.88053    0.32215    1.000
    Si5634   Si       0.76129    0.87778    0.28349    1.000
    N5635    N        0.84631    0.83507    0.32187    1.000
    N5636    N        0.98668    0.88897    0.31193    1.000
    Si5637   Si       0.87961    0.86137    0.33654    1.000
    N5638    N        0.91029    0.85202    0.30479    1.000
    N5639    N        0.97057    0.84081    0.36639    1.000
    Si5640   Si       0.90549    0.88330    0.27433    1.000
    N5641    N        0.75132    0.84312    0.38184    1.000
    N5642    N        0.81297    0.88533    0.48491    1.000
    N5643    N        0.81248    0.85041    0.38007    1.000
    Si5644   Si       0.77947    0.86477    0.46664    1.000
    Si5645   Si       0.85351    0.87152    0.47384    1.000
    Si5646   Si       0.77735    0.87657    0.39158    1.000
    N5647    N        0.76247    0.88590    0.43312    1.000
    N5648    N        0.85874    0.85985    0.43207    1.000
    N5649    N        0.89774    0.85234    0.37770    1.000
    N5650    N        0.92560    0.87179    0.45327    1.000
    N5651    N        0.87152    0.83644    0.49251    1.000
    Si5652   Si       0.95501    0.84074    0.45215    1.000
    Si5653   Si       0.89833    0.86937    0.41706    1.000
    Si5654   Si       0.75964    0.87422    0.56824    1.000
    N5655    N        0.75842    0.85914    0.61194    1.000
    N5656    N        0.82819    0.83710    0.59886    1.000
    N5657    N        0.75169    0.83364    0.55371    1.000
    N5658    N        0.74765    0.86461    0.49428    1.000
    Si5659   Si       0.86866    0.85522    0.59862    1.000
    N5660    N        0.95692    0.85009    0.54681    1.000
    N5661    N        0.92677    0.87955    0.59591    1.000
    Si5662   Si       0.93437    0.83725    0.58195    1.000
    N5663    N        0.99021    0.87930    0.61498    1.000
    Si5664   Si       0.95486    0.89256    0.54062    1.000
    N5665    N        0.83603    0.88622    0.69335    1.000
    Si5666   Si       0.80268    0.85757    0.62536    1.000
    N5667    N        0.78898    0.84563    0.66580    1.000
    Si5668   Si       0.82415    0.84349    0.69579    1.000
    Si5669   Si       0.75271    0.86886    0.65555    1.000
    Si5670   Si       0.89336    0.85498    0.67375    1.000
    N5671    N        0.93083    0.84154    0.65614    1.000
    N5672    N        0.87192    0.87291    0.63906    1.000
    N5673    N        0.90164    0.88344    0.70465    1.000
    Si5674   Si       0.95153    0.87328    0.63259    1.000
    N5675    N        0.75433    0.84979    0.81609    1.000
    Si5676   Si       0.85963    0.84197    0.79372    1.000
    Si5677   Si       0.77183    0.88887    0.82463    1.000
    N5678    N        0.86417    0.86827    0.76039    1.000
    N5679    N        0.87499    0.85738    0.83233    1.000
    N5680    N        0.97430    0.85467    0.79477    1.000
    Si5681   Si       0.97017    0.84239    0.75260    1.000
    Si5682   Si       0.97882    0.83846    0.83567    1.000
    N5683    N        0.92742    0.83672    0.74782    1.000
    Si5684   Si       0.90568    0.87258    0.74694    1.000
    Si5685   Si       0.90286    0.83244    0.85735    1.000
    Si5686   Si       0.78627    0.86954    0.95455    1.000
    N5687    N        0.77092    0.85236    0.91600    1.000
    N5688    N        0.82854    0.87974    0.95339    1.000
    N5689    N        0.77217    0.84126    0.98598    1.000
    N5690    N        0.91717    0.86217    0.88410    1.000
    N5691    N        0.87692    0.84227    0.93181    1.000
    Si5692   Si       0.88428    0.87901    0.91055    1.000
    Si5693   Si       0.87229    0.85129    0.97507    1.000
    N5694    N        0.91322    0.84078    0.98826    1.000
    N5695    N        0.96903    0.84869    0.93393    1.000
    Si5696   Si       0.98069    0.87308    0.96701    1.000
    Si5697   Si       0.95757    0.86952    0.89666    1.000
    Si5698   Si       0.78281    0.91507    0.04126    1.000
    Si5699   Si       0.75783    0.91554    0.10574    1.000
    Si5700   Si       0.84656    0.90917    0.02150    1.000
    Si5701   Si       0.83487    0.91400    0.09683    1.000
    N5702    N        0.79421    0.90521    0.08307    1.000
    N5703    N        0.85676    0.92213    0.06039    1.000
    N5704    N        0.74268    0.90488    0.02666    1.000
    N5705    N        0.92357    0.91234    0.03898    1.000
    Si5706   Si       0.89909    0.93031    0.06867    1.000
    Si5707   Si       0.95962    0.92659    0.01517    1.000
    N5708    N        0.90622    0.90229    0.10332    1.000
    N5709    N        0.87502    0.88704    0.00025    1.000
    N5710    N        0.85082    0.94049    0.12663    1.000
    N5711    N        0.76305    0.91350    0.14669    1.000
    N5712    N        0.82852    0.92246    0.21547    1.000
    Si5713   Si       0.78541    0.90921    0.21578    1.000
    N5714    N        0.76508    0.94467    0.20319    1.000
    Si5715   Si       0.86405    0.94214    0.20049    1.000
    Si5716   Si       0.93590    0.94521    0.23892    1.000
    N5717    N        0.95763    0.91937    0.21206    1.000
    Si5718   Si       0.98297    0.90515    0.18064    1.000
    Si5719   Si       0.89162    0.92560    0.13736    1.000
    N5720    N        0.88391    0.91122    0.17649    1.000
    N5721    N        0.98937    0.93000    0.14690    1.000
    Si5722   Si       0.78873    0.92183    0.33648    1.000
    N5723    N        0.81927    0.94283    0.31465    1.000
    Si5724   Si       0.85887    0.92682    0.30852    1.000
    N5725    N        0.79231    0.89372    0.25598    1.000
    N5726    N        0.75207    0.94486    0.33017    1.000
    N5727    N        0.86188    0.89665    0.27738    1.000
    N5728    N        0.93274    0.91857    0.27531    1.000
    Si5729   Si       0.96199    0.92473    0.30542    1.000
    N5730    N        0.88030    0.90656    0.33940    1.000
    N5731    N        0.94866    0.93145    0.34586    1.000
    Si5732   Si       0.90834    0.92686    0.36528    1.000
    N5733    N        0.78956    0.91801    0.37942    1.000
    N5734    N        0.93451    0.93670    0.45942    1.000
    Si5735   Si       0.98172    0.94074    0.37222    1.000
    Si5736   Si       0.92672    0.90247    0.48648    1.000
    Si5737   Si       0.89556    0.93111    0.44340    1.000
    N5738    N        0.90288    0.91084    0.40489    1.000
    Si5739   Si       0.97607    0.93917    0.47216    1.000
    N5740    N        0.87861    0.90834    0.47855    1.000
    Si5741   Si       0.80008    0.91245    0.51752    1.000
    Si5742   Si       0.82762    0.91010    0.58177    1.000
    N5743    N        0.83370    0.93704    0.52345    1.000
    N5744    N        0.79428    0.89531    0.55819    1.000
    N5745    N        0.76114    0.92643    0.50319    1.000
    N5746    N        0.86527    0.89003    0.57208    1.000
    Si5747   Si       0.87634    0.93028    0.51601    1.000
    Si5748   Si       0.90358    0.90985    0.57659    1.000
    N5749    N        0.96896    0.92333    0.56617    1.000
    N5750    N        0.91444    0.91009    0.53054    1.000
    N5751    N        0.96958    0.90226    0.50017    1.000
    N5752    N        0.81865    0.94705    0.66528    1.000
    N5753    N        0.81224    0.89968    0.62403    1.000
    Si5754   Si       0.78636    0.93161    0.64250    1.000
    Si5755   Si       0.84745    0.90912    0.65754    1.000
    N5756    N        0.75552    0.91123    0.66578    1.000
    Si5757   Si       0.84741    0.90076    0.73311    1.000
    N5758    N        0.93220    0.94680    0.71639    1.000
    N5759    N        0.94711    0.90582    0.66277    1.000
    Si5760   Si       0.98309    0.93000    0.66807    1.000
    N5761    N        0.98494    0.94852    0.62922    1.000
    Si5762   Si       0.91393    0.92023    0.68718    1.000
    N5763    N        0.88456    0.93543    0.65939    1.000
    N5764    N        0.87137    0.93533    0.74224    1.000
    N5765    N        0.75966    0.91869    0.79500    1.000
    Si5766   Si       0.80293    0.92837    0.78799    1.000
    N5767    N        0.75799    0.90019    0.86397    1.000
    N5768    N        0.81459    0.89857    0.81956    1.000
    Si5769   Si       0.85232    0.89464    0.84025    1.000
    N5770    N        0.81106    0.91530    0.74884    1.000
    Si5771   Si       0.91507    0.94121    0.75558    1.000
    N5772    N        0.87685    0.92947    0.82936    1.000
    N5773    N        0.93020    0.90054    0.76796    1.000
    N5774    N        0.95326    0.91400    0.83426    1.000
    Si5775   Si       0.91907    0.93773    0.82817    1.000
    Si5776   Si       0.96484    0.89714    0.79507    1.000
    Si5777   Si       0.78088    0.94944    0.93952    1.000
    N5778    N        0.82351    0.94346    0.93069    1.000
    Si5779   Si       0.85031    0.91905    0.95686    1.000
    N5780    N        0.76776    0.91116    0.95870    1.000
    Si5781   Si       0.84780    0.94010    0.89255    1.000
    N5782    N        0.85530    0.89857    0.88387    1.000
    N5783    N        0.83657    0.94307    0.99316    1.000
    N5784    N        0.94897    0.90235    0.97996    1.000
    Si5785   Si       0.93080    0.92481    0.94483    1.000
    N5786    N        0.95509    0.91168    0.91090    1.000
    N5787    N        0.89064    0.91186    0.93780    1.000
    Si5788   Si       0.96694    0.93875    0.87637    1.000
    Si5789   Si       0.76634    0.98278    0.06070    1.000
    N5790    N        0.79028    0.95739    0.03686    1.000
    N5791    N        0.74692    0.95446    0.08814    1.000
    Si5792   Si       0.80996    0.97574    0.00297    1.000
    N5793    N        0.96834    0.95362    0.08309    1.000
    N5794    N        0.89745    0.99774    0.00754    1.000
    N5795    N        0.89785    0.97229    0.07409    1.000
    Si5796   Si       0.96806    0.98584    0.05489    1.000
    N5797    N        0.96085    0.96925    0.01536    1.000
    Si5798   Si       0.90253    0.00660    0.05057    1.000
    Si5799   Si       0.81905    0.99941    0.21797    1.000
    N5800    N        0.84460    0.98009    0.18676    1.000
    Si5801   Si       0.75130    0.97526    0.22848    1.000
    N5802    N        0.79249    0.98152    0.13829    1.000
    Si5803   Si       0.83581    0.97764    0.14469    1.000
    Si5804   Si       0.76469    0.95399    0.16156    1.000
    N5805    N        0.91981    0.95858    0.14065    1.000
    Si5806   Si       0.96223    0.95673    0.12570    1.000
    N5807    N        0.95249    0.98493    0.23602    1.000
    N5808    N        0.89208    0.95238    0.23122    1.000
    N5809    N        0.96985    0.99793    0.14240    1.000
    Si5810   Si       0.92580    0.00205    0.14640    1.000
    Si5811   Si       0.80210    0.97425    0.28923    1.000
    N5812    N        0.76427    0.96474    0.26865    1.000
    N5813    N        0.83033    0.98520    0.25621    1.000
    Si5814   Si       0.87416    0.97987    0.26078    1.000
    N5815    N        0.87974    0.96606    0.30113    1.000
    Si5816   Si       0.88778    0.99263    0.33515    1.000
    Si5817   Si       0.98244    0.99830    0.26436    1.000
    N5818    N        0.92808    0.00362    0.33519    1.000
    N5819    N        0.98417    0.96172    0.29002    1.000
    N5820    N        0.82262    0.97775    0.38012    1.000
    N5821    N        0.74945    0.99043    0.48711    1.000
    Si5822   Si       0.78808    0.99896    0.46635    1.000
    N5823    N        0.75917    0.98365    0.38913    1.000
    N5824    N        0.82528    0.00298    0.48727    1.000
    Si5825   Si       0.78996    0.95586    0.40007    1.000
    N5826    N        0.78304    0.95988    0.44297    1.000
    Si5827   Si       0.85918    0.97990    0.40081    1.000
    Si5828   Si       0.86244    0.99562    0.46337    1.000
    N5829    N        0.86364    0.95991    0.43771    1.000
    Si5830   Si       0.75026    0.95006    0.46846    1.000
    N5831    N        0.98828    0.98115    0.46556    1.000
    N5832    N        0.89444    0.97075    0.37466    1.000
    N5833    N        0.96627    0.97158    0.39789    1.000
    Si5834   Si       0.93376    0.99218    0.37663    1.000
    N5835    N        0.79128    0.98280    0.54551    1.000
    Si5836   Si       0.79870    0.97856    0.58815    1.000
    Si5837   Si       0.83298    0.98103    0.52202    1.000
    Si5838   Si       0.75114    0.99797    0.53007    1.000
    N5839    N        0.76870    0.95787    0.61294    1.000
    N5840    N        0.85498    0.00640    0.55309    1.000
    N5841    N        0.83352    0.95201    0.58877    1.000
    Si5842   Si       0.86706    0.97827    0.58391    1.000
    Si5843   Si       0.94425    0.95904    0.55776    1.000
    N5844    N        0.94467    0.97775    0.51774    1.000
    N5845    N        0.96122    0.98973    0.58206    1.000
    Si5846   Si       0.98157    0.99708    0.50682    1.000
    Si5847   Si       0.91107    0.00206    0.50678    1.000
    N5848    N        0.87858    0.97335    0.50310    1.000
    N5849    N        0.90206    0.95218    0.57655    1.000
    N5850    N        0.81614    0.98639    0.72862    1.000
    Si5851   Si       0.82853    0.98278    0.68772    1.000
    N5852    N        0.86515    0.99891    0.62330    1.000
    Si5853   Si       0.96808    0.98744    0.62548    1.000
    Si5854   Si       0.88984    0.97802    0.65400    1.000
    N5855    N        0.93029    0.98870    0.64613    1.000
    N5856    N        0.87059    0.99233    0.69071    1.000
    Si5857   Si       0.96030    0.97861    0.71849    1.000
    N5858    N        0.75847    0.98865    0.77465    1.000
    Si5859   Si       0.85353    0.96548    0.82812    1.000
    N5860    N        0.83089    0.96360    0.79122    1.000
    Si5861   Si       0.84946    0.97300    0.75189    1.000
    N5862    N        0.82267    0.95595    0.85947    1.000
    Si5863   Si       0.74627    0.98846    0.81555    1.000
    N5864    N        0.77893    0.00671    0.83690    1.000
    N5865    N        0.92533    0.96416    0.79256    1.000
    Si5866   Si       0.96365    0.98833    0.79617    1.000
    N5867    N        0.88343    0.99914    0.83303    1.000
    N5868    N        0.97876    0.98363    0.75660    1.000
    N5869    N        0.92887    0.95780    0.86470    1.000
    N5870    N        0.87962    0.00427    0.75706    1.000
    Si5871   Si       0.79227    0.98309    0.87289    1.000
    N5872    N        0.76634    0.96174    0.90102    1.000
    N5873    N        0.77932    0.98144    0.97065    1.000
    N5874    N        0.93483    0.96709    0.95023    1.000
    N5875    N        0.87379    0.97582    0.89958    1.000
    Si5876   Si       0.96059    0.00129    0.92709    1.000
    Si5877   Si       0.90489    0.99326    0.87412    1.000
    Si5878   Si       0.93546    0.98794    0.98660    1.000
    N5879    N        0.98153    0.97091    0.90461    1.000
