# CIF file generated by openbabel 3.1.1, see https://openbabel.org
data_I
_chemical_name_common '3.01-75.aims'
_cell_length_a 40.0207
_cell_length_b 40.0207
_cell_length_c 40.0207
_cell_angle_alpha 90
_cell_angle_beta 90
_cell_angle_gamma 90
loop_
    _atom_site_label
    _atom_site_type_symbol
    _atom_site_fract_x
    _atom_site_fract_y
    _atom_site_fract_z
    _atom_site_occupancy
    N0       N        0.00364    0.08491    0.00885    1.000
    Si1      Si       0.04067    0.11060    0.01179    1.000
    Si2      Si       0.03992    0.07491    0.11087    1.000
    N3       N        0.03172    0.02349    0.00604    1.000
    N4       N        0.04702    0.11547    0.09867    1.000
    Si5      Si       0.01758    0.13666    0.07498    1.000
    N6       N        0.02691    0.14818    0.03338    1.000
    N7       N        0.00581    0.17313    0.09342    1.000
    Si8      Si       0.99951    0.17827    0.01679    1.000
    N9       N        0.01997    0.21429    0.00612    1.000
    N10      N        0.04032    0.22997    0.10231    1.000
    N11      N        0.99695    0.06499    0.12529    1.000
    N12      N        0.02060    0.04624    0.22961    1.000
    Si13     Si       0.01358    0.06731    0.16722    1.000
    Si14     Si       0.99943    0.01223    0.21267    1.000
    N15      N        0.99159    0.09279    0.19398    1.000
    Si16     Si       0.98717    0.07435    0.23479    1.000
    N17      N        0.99343    0.02613    0.17262    1.000
    Si18     Si       0.02500    0.19620    0.12570    1.000
    Si19     Si       0.02166    0.17591    0.22268    1.000
    N20      N        0.99733    0.21632    0.14937    1.000
    N21      N        0.02062    0.22014    0.21632    1.000
    Si22     Si       0.98882    0.24999    0.21861    1.000
    Si23     Si       0.02729    0.08234    0.29669    1.000
    N24      N        0.00860    0.04693    0.31580    1.000
    N25      N        0.99728    0.09618    0.26941    1.000
    N26      N        0.03638    0.10497    0.33339    1.000
    Si27     Si       0.01157    0.14015    0.34208    1.000
    N28      N        0.01326    0.16641    0.26415    1.000
    Si29     Si       0.02569    0.24497    0.31721    1.000
    N30      N        0.03950    0.17039    0.32950    1.000
    N31      N        0.04014    0.23704    0.35573    1.000
    Si32     Si       0.04630    0.17972    0.28870    1.000
    N33      N        0.04906    0.22338    0.28719    1.000
    N34      N        0.00520    0.08826    0.45222    1.000
    Si35     Si       0.03598    0.07130    0.47883    1.000
    N36      N        0.04115    0.01363    0.40871    1.000
    N37      N        0.04562    0.02773    0.48502    1.000
    Si38     Si       0.00072    0.00704    0.39433    1.000
    N39      N        0.98419    0.04680    0.38920    1.000
    N40      N        0.00514    0.14243    0.38335    1.000
    N41      N        0.99341    0.20465    0.48068    1.000
    Si42     Si       0.02176    0.20115    0.44846    1.000
    Si43     Si       0.04248    0.15249    0.40502    1.000
    Si44     Si       0.99670    0.13161    0.46014    1.000
    N45      N        0.02957    0.15847    0.44414    1.000
    Si46     Si       0.03980    0.23833    0.40061    1.000
    N47      N        0.00124    0.21999    0.41276    1.000
    Si48     Si       0.00317    0.09324    0.60049    1.000
    Si49     Si       0.03256    0.03609    0.58368    1.000
    Si50     Si       0.99558    0.10112    0.52676    1.000
    N51      N        0.03725    0.09302    0.51791    1.000
    N52      N        0.01152    0.01245    0.55235    1.000
    N53      N        0.04345    0.07720    0.59735    1.000
    N54      N        0.98692    0.11861    0.56747    1.000
    N55      N        0.01017    0.17265    0.60955    1.000
    Si56     Si       0.00593    0.16049    0.56832    1.000
    Si57     Si       0.99145    0.22674    0.51838    1.000
    N58      N        0.99072    0.19463    0.54827    1.000
    Si59     Si       0.03546    0.20451    0.62100    1.000
    N60      N        0.00103    0.09200    0.70823    1.000
    Si61     Si       0.02309    0.10337    0.67271    1.000
    Si62     Si       0.00489    0.04890    0.71144    1.000
    N63      N        0.99909    0.11282    0.63790    1.000
    Si64     Si       0.99286    0.02391    0.63457    1.000
    N65      N        0.03164    0.00908    0.62074    1.000
    N66      N        0.98742    0.03047    0.67644    1.000
    Si67     Si       0.00533    0.25140    0.71037    1.000
    N68      N        0.02274    0.21308    0.70031    1.000
    N69      N        0.03971    0.24367    0.64325    1.000
    N70      N        0.03762    0.14334    0.68444    1.000
    Si71     Si       0.00932    0.17191    0.69978    1.000
    Si72     Si       0.02212    0.04513    0.83177    1.000
    Si73     Si       0.03005    0.01404    0.75726    1.000
    N74      N        0.03909    0.03394    0.79428    1.000
    N75      N        0.02639    0.01904    0.86725    1.000
    N76      N        0.98979    0.02629    0.74527    1.000
    N77      N        0.01392    0.20508    0.78308    1.000
    N78      N        0.02271    0.18190    0.85010    1.000
    Si79     Si       0.00482    0.24823    0.78245    1.000
    N80      N        0.99348    0.24944    0.82486    1.000
    Si81     Si       0.04271    0.19627    0.81256    1.000
    N82      N        0.99273    0.12295    0.93698    1.000
    N83      N        0.03700    0.11052    0.89636    1.000
    Si84     Si       0.00744    0.03777    0.90452    1.000
    N85      N        0.02627    0.05278    0.94322    1.000
    Si86     Si       0.00730    0.04970    0.98429    1.000
    Si87     Si       0.99353    0.10277    0.89730    1.000
    Si88     Si       0.03849    0.13676    0.93079    1.000
    Si89     Si       0.03995    0.19954    0.88717    1.000
    N90      N        0.02474    0.17923    0.92303    1.000
    N91      N        0.02779    0.24090    0.88575    1.000
    Si92     Si       0.98856    0.19600    0.94556    1.000
    Si93     Si       0.00847    0.25145    0.98423    1.000
    N94      N        0.99618    0.23952    0.94516    1.000
    N95      N        0.00543    0.30319    0.06226    1.000
    Si96     Si       0.99556    0.31525    0.02164    1.000
    Si97     Si       0.03515    0.32797    0.08382    1.000
    N98      N        0.00069    0.34514    0.10880    1.000
    N99      N        0.01240    0.40065    0.05097    1.000
    Si100    Si       0.01673    0.43959    0.06902    1.000
    N101     N        0.03828    0.44390    0.10844    1.000
    N102     N        0.03577    0.46556    0.04050    1.000
    N103     N        0.04245    0.33170    0.18682    1.000
    Si104    Si       0.02025    0.36898    0.18328    1.000
    N105     N        0.99849    0.28390    0.13337    1.000
    Si106    Si       0.00702    0.31036    0.16844    1.000
    Si107    Si       0.04043    0.26427    0.12666    1.000
    Si108    Si       0.01048    0.43438    0.21712    1.000
    Si109    Si       0.01958    0.44020    0.14667    1.000
    N110     N        0.00780    0.39791    0.15125    1.000
    N111     N        0.03647    0.45243    0.18497    1.000
    N112     N        0.02429    0.39310    0.21834    1.000
    N113     N        0.02342    0.32607    0.35234    1.000
    Si114    Si       0.00725    0.29993    0.27337    1.000
    N115     N        0.03507    0.28529    0.30299    1.000
    N116     N        0.03136    0.33356    0.25258    1.000
    Si117    Si       0.03424    0.37711    0.25700    1.000
    N118     N        0.00260    0.38583    0.28421    1.000
    N119     N        0.00550    0.44013    0.32864    1.000
    Si120    Si       0.03100    0.47622    0.33390    1.000
    N121     N        0.01914    0.44816    0.25795    1.000
    Si122    Si       0.03478    0.48674    0.26239    1.000
    Si123    Si       0.99581    0.42792    0.28910    1.000
    Si124    Si       0.98801    0.30855    0.45166    1.000
    Si125    Si       0.03226    0.31935    0.39352    1.000
    N126     N        0.02325    0.29774    0.47108    1.000
    N127     N        0.99270    0.32893    0.41115    1.000
    N128     N        0.04263    0.27971    0.40803    1.000
    N129     N        0.00929    0.39275    0.38185    1.000
    Si130    Si       0.02820    0.44608    0.41586    1.000
    N131     N        0.99417    0.45908    0.39087    1.000
    N132     N        0.01192    0.42324    0.44947    1.000
    Si133    Si       0.03130    0.41717    0.48930    1.000
    N134     N        0.02173    0.28222    0.59814    1.000
    N135     N        0.00232    0.32348    0.54267    1.000
    Si136    Si       0.03241    0.35882    0.54194    1.000
    Si137    Si       0.02701    0.30030    0.51377    1.000
    Si138    Si       0.99718    0.28370    0.56286    1.000
    N139     N        0.01803    0.25994    0.53084    1.000
    N140     N        0.03897    0.37706    0.50399    1.000
    N141     N        0.99563    0.38673    0.55539    1.000
    Si142    Si       0.00719    0.40403    0.59413    1.000
    N143     N        0.00883    0.44217    0.51926    1.000
    N144     N        0.02242    0.44268    0.60241    1.000
    Si145    Si       0.00411    0.48532    0.51560    1.000
    Si146    Si       0.02324    0.48426    0.58737    1.000
    N147     N        0.03877    0.50287    0.49992    1.000
    N148     N        0.99318    0.49675    0.55616    1.000
    Si149    Si       0.03600    0.34649    0.65711    1.000
    N150     N        0.00943    0.31437    0.65572    1.000
    Si151    Si       0.00955    0.27532    0.64185    1.000
    N152     N        0.04271    0.27408    0.71903    1.000
    N153     N        0.01810    0.37337    0.62364    1.000
    Si154    Si       0.04095    0.39794    0.71092    1.000
    Si155    Si       0.01761    0.46552    0.69348    1.000
    N156     N        0.03568    0.48010    0.65659    1.000
    N157     N        0.02418    0.42342    0.67948    1.000
    N158     N        0.04081    0.48386    0.72587    1.000
    Si159    Si       0.04225    0.43873    0.64017    1.000
    N160     N        0.03752    0.27793    0.78351    1.000
    N161     N        0.04133    0.30108    0.85524    1.000
    Si162    Si       0.03969    0.30554    0.74932    1.000
    Si163    Si       0.98993    0.36901    0.75468    1.000
    N164     N        0.00293    0.32732    0.74557    1.000
    Si165    Si       0.02959    0.26029    0.84656    1.000
    Si166    Si       0.99677    0.38206    0.83513    1.000
    Si167    Si       0.02144    0.42208    0.78505    1.000
    N168     N        0.03130    0.40476    0.82332    1.000
    N169     N        0.02387    0.39400    0.75027    1.000
    Si170    Si       0.00776    0.32199    0.87097    1.000
    N171     N        0.00964    0.36530    0.87462    1.000
    Si172    Si       0.99597    0.26101    0.90583    1.000
    Si173    Si       0.01764    0.33780    0.94873    1.000
    N174     N        0.99286    0.30542    0.90844    1.000
    N175     N        0.02928    0.37844    0.93924    1.000
    N176     N        0.02686    0.32887    0.99563    1.000
    N177     N        0.00729    0.43280    0.90473    1.000
    N178     N        0.02795    0.50433    0.92505    1.000
    Si179    Si       0.02974    0.39611    0.89558    1.000
    Si180    Si       0.02567    0.40437    0.97430    1.000
    N181     N        0.03106    0.44901    0.96708    1.000
    Si182    Si       0.01042    0.46570    0.93382    1.000
    N183     N        0.00130    0.52362    0.06089    1.000
    Si184    Si       0.03612    0.62005    0.01005    1.000
    N185     N        0.03225    0.57562    0.08803    1.000
    N186     N        0.04326    0.57551    0.02027    1.000
    Si187    Si       0.03781    0.50804    0.04327    1.000
    Si188    Si       0.99040    0.56555    0.07389    1.000
    N189     N        0.00503    0.67913    0.01141    1.000
    Si190    Si       0.02514    0.71785    0.00929    1.000
    Si191    Si       0.01959    0.67428    0.05314    1.000
    N192     N        0.03780    0.71360    0.05166    1.000
    N193     N        0.00087    0.75026    0.99419    1.000
    Si194    Si       0.01981    0.60002    0.12083    1.000
    N195     N        0.04224    0.62438    0.20772    1.000
    Si196    Si       0.98995    0.53960    0.23591    1.000
    N197     N        0.02212    0.57298    0.15539    1.000
    N198     N        0.02404    0.56812    0.22896    1.000
    Si199    Si       0.01403    0.61193    0.23911    1.000
    Si200    Si       0.99435    0.67023    0.12408    1.000
    Si201    Si       0.00502    0.72256    0.23427    1.000
    N202     N        0.99514    0.70668    0.15053    1.000
    N203     N        0.02710    0.64290    0.12479    1.000
    Si204    Si       0.01134    0.74608    0.16859    1.000
    N205     N        0.04038    0.69775    0.22585    1.000
    N206     N        0.00118    0.60224    0.35619    1.000
    N207     N        0.01048    0.56425    0.29947    1.000
    N208     N        0.01889    0.62260    0.28184    1.000
    Si209    Si       0.99119    0.60440    0.31313    1.000
    N210     N        0.00051    0.50560    0.33959    1.000
    N211     N        0.99620    0.50835    0.26526    1.000
    Si212    Si       0.04460    0.60846    0.36153    1.000
    Si213    Si       0.98746    0.52795    0.30478    1.000
    N214     N        0.99369    0.72627    0.27787    1.000
    N215     N        0.04229    0.71315    0.36035    1.000
    Si216    Si       0.02218    0.55345    0.42885    1.000
    N217     N        0.03121    0.56245    0.47295    1.000
    Si218    Si       0.01238    0.59963    0.48081    1.000
    N219     N        0.99244    0.52788    0.41092    1.000
    Si220    Si       0.03485    0.62615    0.42473    1.000
    N221     N        0.00520    0.59367    0.42283    1.000
    N222     N        0.04041    0.62942    0.46690    1.000
    N223     N        0.02396    0.66179    0.40432    1.000
    Si224    Si       0.00996    0.73741    0.37538    1.000
    N225     N        0.01271    0.60500    0.52350    1.000
    N226     N        0.03028    0.52192    0.60774    1.000
    N227     N        0.03633    0.61729    0.58868    1.000
    Si228    Si       0.99534    0.61743    0.59668    1.000
    Si229    Si       0.04591    0.60019    0.54822    1.000
    Si230    Si       0.01369    0.69483    0.52332    1.000
    Si231    Si       0.03318    0.71512    0.58918    1.000
    N232     N        0.00045    0.69921    0.56363    1.000
    N233     N        0.01503    0.73426    0.50533    1.000
    N234     N        0.99527    0.54344    0.66510    1.000
    N235     N        0.00473    0.61184    0.69418    1.000
    Si236    Si       0.99780    0.56908    0.69973    1.000
    N237     N        0.03381    0.55538    0.72009    1.000
    Si238    Si       0.03058    0.52095    0.65125    1.000
    Si239    Si       0.04334    0.63448    0.69425    1.000
    Si240    Si       0.00778    0.67619    0.64738    1.000
    N241     N        0.04354    0.65301    0.65485    1.000
    Si242    Si       0.02802    0.74715    0.65548    1.000
    N243     N        0.01806    0.71540    0.62951    1.000
    N244     N        0.02893    0.74342    0.69814    1.000
    N245     N        0.04658    0.65286    0.73348    1.000
    Si246    Si       0.02679    0.60719    0.83220    1.000
    N247     N        0.01756    0.56503    0.83202    1.000
    Si248    Si       0.99442    0.53181    0.81376    1.000
    N249     N        0.99621    0.53190    0.77100    1.000
    N250     N        0.00047    0.62602    0.86388    1.000
    Si251    Si       0.02707    0.53609    0.86594    1.000
    Si252    Si       0.03260    0.52126    0.74801    1.000
    N253     N        0.02172    0.50462    0.83355    1.000
    N254     N        0.01765    0.63569    0.80261    1.000
    Si255    Si       0.01179    0.65019    0.76242    1.000
    N256     N        0.00388    0.68938    0.84138    1.000
    Si257    Si       0.03088    0.69206    0.80803    1.000
    N258     N        0.00283    0.69061    0.77625    1.000
    Si259    Si       0.98724    0.65243    0.83138    1.000
    Si260    Si       0.04122    0.55295    0.98534    1.000
    N261     N        0.99873    0.55150    0.89390    1.000
    N262     N        0.99999    0.55386    0.96907    1.000
    N263     N        0.99724    0.62134    0.98630    1.000
    Si264    Si       0.99072    0.52944    0.93322    1.000
    N265     N        0.04697    0.63062    0.91742    1.000
    N266     N        0.01131    0.67954    0.90875    1.000
    N267     N        0.02433    0.74620    0.87898    1.000
    Si268    Si       0.99772    0.70934    0.87967    1.000
    Si269    Si       0.00506    0.63672    0.90494    1.000
    Si270    Si       0.00126    0.78804    0.10920    1.000
    N271     N        0.03884    0.84507    0.06173    1.000
    Si272    Si       0.99693    0.84280    0.07235    1.000
    N273     N        0.03664    0.77156    0.08906    1.000
    N274     N        0.02202    0.82594    0.11728    1.000
    N275     N        0.03358    0.88426    0.99947    1.000
    N276     N        0.99965    0.91876    0.04892    1.000
    N277     N        0.03166    0.92724    0.10641    1.000
    Si278    Si       0.03759    0.93386    0.06381    1.000
    Si279    Si       0.99576    0.89515    0.01551    1.000
    N280     N        0.01202    0.99234    0.11646    1.000
    N281     N        0.04802    0.97583    0.05897    1.000
    N282     N        0.99383    0.86411    0.16780    1.000
    N283     N        0.00677    0.84235    0.23773    1.000
    Si284    Si       0.02938    0.84545    0.15414    1.000
    Si285    Si       0.00601    0.80252    0.21004    1.000
    N286     N        0.03865    0.81390    0.18156    1.000
    Si287    Si       0.99364    0.87377    0.20974    1.000
    N288     N        0.00916    0.75984    0.21255    1.000
    Si289    Si       0.00043    0.95205    0.12186    1.000
    N290     N        0.02189    0.90770    0.21538    1.000
    Si291    Si       0.01964    0.94299    0.19149    1.000
    N292     N        0.02083    0.97690    0.21940    1.000
    Si293    Si       0.00107    0.83433    0.28034    1.000
    N294     N        0.03915    0.83191    0.30157    1.000
    Si295    Si       0.00701    0.76047    0.30113    1.000
    N296     N        0.98849    0.79248    0.27982    1.000
    N297     N        0.02383    0.88889    0.35812    1.000
    N298     N        0.01688    0.98465    0.28529    1.000
    N299     N        0.02565    0.90777    0.28672    1.000
    N300     N        0.99489    0.99588    0.35127    1.000
    Si301    Si       0.02525    0.00671    0.32079    1.000
    Si302    Si       0.01086    0.85335    0.44272    1.000
    N303     N        0.03300    0.84107    0.40703    1.000
    N304     N        0.03333    0.85770    0.47886    1.000
    N305     N        0.99680    0.81438    0.45791    1.000
    N306     N        0.01892    0.77169    0.40324    1.000
    Si307    Si       0.04736    0.88021    0.39336    1.000
    Si308    Si       0.00150    0.94383    0.43249    1.000
    N309     N        0.03282    0.90681    0.42693    1.000
    N310     N        0.03530    0.96258    0.45376    1.000
    N311     N        0.01932    0.84082    0.54055    1.000
    Si312    Si       0.01310    0.82075    0.49974    1.000
    N313     N        0.04894    0.79708    0.51157    1.000
    Si314    Si       0.01432    0.87961    0.61469    1.000
    N315     N        0.02672    0.95044    0.58796    1.000
    Si316    Si       0.02729    0.97236    0.54829    1.000
    N317     N        0.99644    0.94553    0.53207    1.000
    N318     N        0.99492    0.89031    0.57944    1.000
    N319     N        0.99975    0.83976    0.62405    1.000
    Si320    Si       0.01265    0.86757    0.73954    1.000
    Si321    Si       0.02747    0.81126    0.63912    1.000
    N322     N        0.00120    0.78099    0.65318    1.000
    Si323    Si       0.99585    0.76438    0.72356    1.000
    Si324    Si       0.01007    0.91662    0.68079    1.000
    N325     N        0.03007    0.88136    0.70052    1.000
    Si326    Si       0.03770    0.96790    0.62909    1.000
    N327     N        0.03843    0.94657    0.66908    1.000
    N328     N        0.99467    0.90587    0.64167    1.000
    Si329    Si       0.00331    0.81875    0.84200    1.000
    N330     N        0.03033    0.79951    0.81555    1.000
    N331     N        0.00286    0.85858    0.82630    1.000
    N332     N        0.02366    0.76891    0.75526    1.000
    N333     N        0.03394    0.84354    0.76522    1.000
    Si334    Si       0.02015    0.76274    0.79672    1.000
    N335     N        0.00016    0.90404    0.76071    1.000
    Si336    Si       0.99920    0.89745    0.80184    1.000
    N337     N        0.03926    0.90936    0.81750    1.000
    N338     N        0.02880    0.97170    0.75188    1.000
    Si339    Si       0.99607    0.94483    0.74798    1.000
    Si340    Si       0.01618    0.78303    0.89942    1.000
    Si341    Si       0.02320    0.85496    0.91052    1.000
    N342     N        0.01936    0.82204    0.88232    1.000
    Si343    Si       0.03700    0.76787    0.97600    1.000
    N344     N        0.04024    0.78643    0.93575    1.000
    Si345    Si       0.99723    0.97826    0.87558    1.000
    N346     N        0.04108    0.95519    0.87196    1.000
    N347     N        0.02376    0.88937    0.88281    1.000
    Si348    Si       0.02531    0.92727    0.90328    1.000
    N349     N        0.98642    0.00201    0.91206    1.000
    N350     N        0.07643    0.09034    0.02831    1.000
    Si351    Si       0.08240    0.05505    0.05434    1.000
    N352     N        0.09450    0.01629    0.03669    1.000
    N353     N        0.04959    0.04551    0.08195    1.000
    Si354    Si       0.07499    0.21569    0.08127    1.000
    N355     N        0.08570    0.17478    0.07775    1.000
    N356     N        0.07964    0.23548    0.04327    1.000
    Si357    Si       0.06276    0.22582    0.00493    1.000
    Si358    Si       0.07371    0.14669    0.11120    1.000
    N359     N        0.09431    0.06471    0.21436    1.000
    Si360    Si       0.09312    0.07077    0.17181    1.000
    N361     N        0.05468    0.07129    0.15171    1.000
    Si362    Si       0.06242    0.05045    0.24046    1.000
    N363     N        0.06247    0.16263    0.21788    1.000
    N364     N        0.06307    0.24890    0.16260    1.000
    Si365    Si       0.05733    0.23978    0.20465    1.000
    N366     N        0.05543    0.17101    0.14137    1.000
    N367     N        0.08611    0.22233    0.23271    1.000
    Si368    Si       0.09524    0.18027    0.23951    1.000
    N369     N        0.06536    0.07733    0.27501    1.000
    Si370    Si       0.07437    0.10085    0.35524    1.000
    N371     N        0.07554    0.01316    0.25917    1.000
    N372     N        0.06505    0.01561    0.33966    1.000
    N373     N        0.10610    0.10305    0.32415    1.000
    N374     N        0.08983    0.17057    0.28081    1.000
    Si375    Si       0.06058    0.19903    0.35330    1.000
    N376     N        0.09786    0.20906    0.33749    1.000
    Si377    Si       0.07121    0.24986    0.26301    1.000
    N378     N        0.08750    0.06408    0.38017    1.000
    Si379    Si       0.07288    0.02433    0.38209    1.000
    N380     N        0.07367    0.07527    0.45684    1.000
    N381     N        0.07451    0.13051    0.38666    1.000
    N382     N        0.05930    0.19251    0.39586    1.000
    Si383    Si       0.09704    0.20513    0.41644    1.000
    N384     N        0.05115    0.23299    0.44927    1.000
    Si385    Si       0.08003    0.22252    0.48314    1.000
    N386     N        0.10327    0.19526    0.46006    1.000
    N387     N        0.07078    0.03512    0.55958    1.000
    Si388    Si       0.07094    0.01680    0.51931    1.000
    N389     N        0.09918    0.10378    0.56124    1.000
    Si390    Si       0.06776    0.11873    0.53422    1.000
    Si391    Si       0.10180    0.06118    0.57659    1.000
    N392     N        0.09606    0.13994    0.50808    1.000
    N393     N        0.07285    0.20849    0.52338    1.000
    Si394    Si       0.07429    0.18454    0.56177    1.000
    Si395    Si       0.05302    0.23998    0.54722    1.000
    N396     N        0.05545    0.21807    0.58480    1.000
    N397     N        0.04647    0.15278    0.55467    1.000
    Si398    Si       0.07877    0.05605    0.70140    1.000
    N399     N        0.05481    0.07394    0.66776    1.000
    Si400    Si       0.07131    0.08365    0.63039    1.000
    N401     N        0.08248    0.12551    0.63238    1.000
    N402     N        0.10509    0.05873    0.61899    1.000
    N403     N        0.04710    0.03881    0.72428    1.000
    N404     N        0.09975    0.08911    0.72262    1.000
    N405     N        0.09360    0.22719    0.69780    1.000
    Si406    Si       0.05746    0.22242    0.67621    1.000
    Si407    Si       0.07521    0.15262    0.66374    1.000
    N408     N        0.06676    0.19011    0.64782    1.000
    Si409    Si       0.07403    0.05929    0.80430    1.000
    N410     N        0.09059    0.09817    0.79123    1.000
    N411     N        0.09321    0.12512    0.86076    1.000
    N412     N        0.05477    0.07420    0.84127    1.000
    Si413    Si       0.09564    0.13151    0.81749    1.000
    N414     N        0.06659    0.16166    0.80467    1.000
    N415     N        0.06023    0.23477    0.82582    1.000
    Si416    Si       0.09809    0.22287    0.84797    1.000
    Si417    Si       0.06998    0.09260    0.87667    1.000
    Si418    Si       0.06957    0.04152    0.93870    1.000
    N419     N        0.08733    0.05776    0.89996    1.000
    N420     N        0.09990    0.04832    0.96804    1.000
    N421     N        0.04818    0.12920    0.97432    1.000
    N422     N        0.08236    0.14813    0.92617    1.000
    N423     N        0.08158    0.19539    0.87551    1.000
    N424     N        0.08462    0.19637    0.97989    1.000
    Si425    Si       0.09906    0.15890    0.88848    1.000
    Si426    Si       0.08415    0.15371    0.96874    1.000
    N427     N        0.06183    0.34488    0.05260    1.000
    N428     N        0.05632    0.30079    0.10985    1.000
    Si429    Si       0.09882    0.33294    0.03632    1.000
    N430     N        0.09820    0.31315    0.99881    1.000
    Si431    Si       0.09894    0.30651    0.10763    1.000
    Si432    Si       0.08021    0.43686    0.10381    1.000
    N433     N        0.07662    0.40696    0.07072    1.000
    Si434    Si       0.05143    0.38563    0.04099    1.000
    N435     N        0.05959    0.39764    0.99968    1.000
    Si436    Si       0.05196    0.46672    0.99900    1.000
    N437     N        0.09848    0.32632    0.23772    1.000
    Si438    Si       0.05878    0.31742    0.22472    1.000
    N439     N        0.05454    0.27516    0.23057    1.000
    N440     N        0.05294    0.50582    0.22836    1.000
    N441     N        0.10390    0.49287    0.17860    1.000
    Si442    Si       0.06803    0.47564    0.20168    1.000
    N443     N        0.09456    0.44896    0.22161    1.000
    N444     N        0.07988    0.33904    0.30622    1.000
    Si445    Si       0.05705    0.31181    0.32992    1.000
    N446     N        0.08656    0.28671    0.34959    1.000
    N447     N        0.10500    0.26995    0.27979    1.000
    Si448    Si       0.10379    0.31448    0.27822    1.000
    Si449    Si       0.08726    0.38218    0.30985    1.000
    N450     N        0.06858    0.39750    0.34576    1.000
    N451     N        0.07391    0.39931    0.27095    1.000
    Si452    Si       0.09667    0.49340    0.30964    1.000
    N453     N        0.05526    0.48942    0.29995    1.000
    Si454    Si       0.08313    0.43700    0.36674    1.000
    Si455    Si       0.10562    0.41988    0.25219    1.000
    N456     N        0.10483    0.45405    0.32776    1.000
    N457     N        0.06460    0.34848    0.39607    1.000
    N458     N        0.08505    0.37230    0.45692    1.000
    Si459    Si       0.05814    0.27754    0.45054    1.000
    Si460    Si       0.09747    0.34285    0.42481    1.000
    N461     N        0.09229    0.30656    0.44637    1.000
    N462     N        0.08388    0.26486    0.49150    1.000
    Si463    Si       0.06845    0.50141    0.40148    1.000
    Si464    Si       0.08468    0.41268    0.44596    1.000
    N465     N        0.05595    0.47358    0.37010    1.000
    Si466    Si       0.05070    0.38628    0.38293    1.000
    N467     N        0.04875    0.48154    0.43565    1.000
    N468     N        0.06397    0.41955    0.40717    1.000
    Si469    Si       0.06369    0.47968    0.47543    1.000
    N470     N        0.07041    0.43472    0.48102    1.000
    N471     N        0.06412    0.32302    0.51986    1.000
    Si472    Si       0.09339    0.29164    0.52350    1.000
    N473     N        0.08256    0.27016    0.55954    1.000
    Si474    Si       0.06396    0.37566    0.61307    1.000
    Si475    Si       0.07766    0.35831    0.49565    1.000
    Si476    Si       0.06027    0.26294    0.60292    1.000
    N477     N        0.05818    0.37775    0.57165    1.000
    Si478    Si       0.10363    0.47623    0.56537    1.000
    Si479    Si       0.09512    0.39867    0.55745    1.000
    N480     N        0.06231    0.48931    0.56883    1.000
    N481     N        0.10004    0.43935    0.54498    1.000
    N482     N        0.10660    0.38539    0.51656    1.000
    N483     N        0.09784    0.27538    0.62063    1.000
    N484     N        0.05030    0.35925    0.69632    1.000
    Si485    Si       0.10231    0.31009    0.64810    1.000
    Si486    Si       0.08571    0.33596    0.70990    1.000
    N487     N        0.09693    0.29751    0.68932    1.000
    Si488    Si       0.08704    0.26442    0.71757    1.000
    N489     N        0.07186    0.33807    0.63525    1.000
    N490     N        0.07812    0.41263    0.63285    1.000
    N491     N        0.07706    0.42305    0.72239    1.000
    Si492    Si       0.07179    0.46022    0.74526    1.000
    Si493    Si       0.07850    0.32253    0.84386    1.000
    N494     N        0.08367    0.35569    0.81903    1.000
    N495     N        0.08043    0.32687    0.75118    1.000
    N496     N        0.10033    0.29248    0.82118    1.000
    Si497    Si       0.07759    0.26513    0.79507    1.000
    N498     N        0.09942    0.25767    0.75846    1.000
    N499     N        0.09255    0.49210    0.83286    1.000
    Si500    Si       0.07389    0.39427    0.83489    1.000
    Si501    Si       0.05663    0.49032    0.81075    1.000
    N502     N        0.05144    0.45575    0.78515    1.000
    N503     N        0.05043    0.26261    0.98689    1.000
    N504     N        0.09694    0.32438    0.88210    1.000
    Si505    Si       0.06051    0.30402    0.98128    1.000
    Si506    Si       0.08132    0.30015    0.91311    1.000
    N507     N        0.05339    0.31430    0.94105    1.000
    Si508    Si       0.09450    0.41448    0.98078    1.000
    N509     N        0.06888    0.39808    0.87798    1.000
    N510     N        0.09538    0.45738    0.99169    1.000
    N511     N        0.07186    0.52669    0.06249    1.000
    Si512    Si       0.06194    0.56831    0.05926    1.000
    N513     N        0.09773    0.59129    0.07075    1.000
    Si514    Si       0.10237    0.58517    0.11629    1.000
    N515     N        0.04550    0.51257    0.99970    1.000
    Si516    Si       0.08935    0.63658    0.06574    1.000
    Si517    Si       0.06061    0.73589    0.08053    1.000
    N518     N        0.07383    0.70813    0.11093    1.000
    N519     N        0.10238    0.64862    0.10703    1.000
    N520     N        0.10122    0.73602    0.06367    1.000
    N521     N        0.04827    0.63927    0.04790    1.000
    Si522    Si       0.05485    0.59077    0.17997    1.000
    N523     N        0.07397    0.60527    0.14392    1.000
    Si524    Si       0.06239    0.54684    0.22939    1.000
    N525     N        0.08324    0.56172    0.19326    1.000
    N526     N        0.10183    0.54147    0.12605    1.000
    N527     N        0.05470    0.74886    0.16088    1.000
    N528     N        0.09749    0.73513    0.23861    1.000
    N529     N        0.07179    0.67515    0.16842    1.000
    Si530    Si       0.06958    0.64753    0.13545    1.000
    Si531    Si       0.06054    0.66313    0.20773    1.000
    Si532    Si       0.08004    0.71440    0.15321    1.000
    N533     N        0.09602    0.66591    0.23431    1.000
    N534     N        0.06518    0.57865    0.33558    1.000
    N535     N        0.07912    0.56016    0.26755    1.000
    Si536    Si       0.05178    0.58484    0.29052    1.000
    N537     N        0.08048    0.62137    0.29227    1.000
    N538     N        0.10258    0.51908    0.34428    1.000
    Si539    Si       0.07555    0.70100    0.25019    1.000
    Si540    Si       0.06244    0.72226    0.32112    1.000
    N541     N        0.06077    0.69247    0.29077    1.000
    Si542    Si       0.04963    0.65021    0.30031    1.000
    N543     N        0.05090    0.64714    0.34337    1.000
    N544     N        0.06652    0.60888    0.39996    1.000
    N545     N        0.06241    0.54294    0.41212    1.000
    Si546    Si       0.09005    0.57497    0.41314    1.000
    Si547    Si       0.06906    0.64717    0.49132    1.000
    Si548    Si       0.05516    0.67507    0.37707    1.000
    N549     N        0.09268    0.67621    0.46629    1.000
    N550     N        0.09763    0.67552    0.39045    1.000
    N551     N        0.07830    0.74366    0.48616    1.000
    Si552    Si       0.06312    0.52999    0.58077    1.000
    N553     N        0.07793    0.61981    0.52381    1.000
    N554     N        0.10198    0.53535    0.60061    1.000
    Si555    Si       0.05349    0.54386    0.50529    1.000
    N556     N        0.05283    0.55536    0.54815    1.000
    N557     N        0.09605    0.55264    0.49873    1.000
    N558     N        0.05660    0.68152    0.51828    1.000
    Si559    Si       0.08496    0.67413    0.55178    1.000
    N560     N        0.06254    0.68156    0.59024    1.000
    Si561    Si       0.05811    0.64422    0.61440    1.000
    Si562    Si       0.04973    0.75507    0.52117    1.000
    N563     N        0.04944    0.74883    0.56667    1.000
    Si564    Si       0.08966    0.70365    0.49851    1.000
    Si565    Si       0.07228    0.56273    0.70125    1.000
    N566     N        0.06979    0.53977    0.66382    1.000
    N567     N        0.07530    0.60466    0.69061    1.000
    N568     N        0.09842    0.63003    0.62567    1.000
    N569     N        0.10440    0.55174    0.72637    1.000
    Si570    Si       0.05745    0.75602    0.72753    1.000
    N571     N        0.06698    0.51993    0.77593    1.000
    N572     N        0.06741    0.61406    0.84326    1.000
    Si573    Si       0.09965    0.52595    0.85741    1.000
    Si574    Si       0.10666    0.52192    0.76047    1.000
    N575     N        0.07088    0.68287    0.79142    1.000
    Si576    Si       0.08437    0.72572    0.79149    1.000
    Si577    Si       0.05948    0.73458    0.85782    1.000
    Si578    Si       0.08051    0.68108    0.74676    1.000
    N579     N        0.04899    0.73394    0.81515    1.000
    N580     N        0.07861    0.72620    0.74927    1.000
    N581     N        0.06643    0.53642    0.88320    1.000
    Si582    Si       0.06896    0.60720    0.94522    1.000
    N583     N        0.06161    0.56464    0.94849    1.000
    Si584    Si       0.06691    0.52655    0.92592    1.000
    N585     N        0.06919    0.62646    0.98382    1.000
    N586     N        0.10015    0.50468    0.94148    1.000
    N587     N        0.08789    0.68495    0.93504    1.000
    Si588    Si       0.09312    0.71703    0.96447    1.000
    N589     N        0.09889    0.75242    0.87157    1.000
    N590     N        0.05604    0.72954    0.98102    1.000
    N591     N        0.07167    0.69658    0.87664    1.000
    Si592    Si       0.05483    0.67255    0.90950    1.000
    Si593    Si       0.10419    0.71154    0.90154    1.000
    Si594    Si       0.08959    0.80704    0.02437    1.000
    N595     N        0.09087    0.85017    0.02083    1.000
    N596     N        0.09074    0.80268    0.06805    1.000
    Si597    Si       0.05731    0.87269    0.03448    1.000
    Si598    Si       0.05292    0.81288    0.08920    1.000
    N599     N        0.07015    0.91167    0.04708    1.000
    Si600    Si       0.09346    0.93241    0.01591    1.000
    Si601    Si       0.06027    0.99486    0.02094    1.000
    Si602    Si       0.04736    0.00179    0.09249    1.000
    N603     N        0.10438    0.78773    0.19197    1.000
    N604     N        0.08614    0.81387    0.13165    1.000
    Si605    Si       0.06993    0.78882    0.16629    1.000
    N606     N        0.06169    0.87624    0.14868    1.000
    Si607    Si       0.09712    0.85133    0.15116    1.000
    N608     N        0.07993    0.99944    0.12131    1.000
    Si609    Si       0.08556    0.96845    0.15202    1.000
    Si610    Si       0.06050    0.91640    0.13546    1.000
    N611     N        0.05180    0.94741    0.16491    1.000
    N612     N        0.09719    0.93579    0.12308    1.000
    N613     N        0.07091    0.79956    0.36003    1.000
    Si614    Si       0.07032    0.85837    0.28920    1.000
    Si615    Si       0.06527    0.80142    0.31674    1.000
    N616     N        0.09930    0.82693    0.30360    1.000
    N617     N        0.07130    0.87354    0.25039    1.000
    N618     N        0.05027    0.76142    0.30729    1.000
    N619     N        0.08314    0.88822    0.31659    1.000
    Si620    Si       0.09112    0.97907    0.34080    1.000
    N621     N        0.06115    0.94884    0.33882    1.000
    Si622    Si       0.04799    0.91012    0.32666    1.000
    Si623    Si       0.04720    0.90964    0.24920    1.000
    Si624    Si       0.04774    0.98133    0.25354    1.000
    N625     N        0.07112    0.94586    0.24798    1.000
    N626     N        0.08485    0.78926    0.41860    1.000
    Si627    Si       0.07373    0.86988    0.48494    1.000
    N628     N        0.09675    0.86351    0.44713    1.000
    Si629    Si       0.09710    0.76201    0.45108    1.000
    N630     N        0.08909    0.88147    0.38209    1.000
    Si631    Si       0.04881    0.80191    0.39636    1.000
    Si632    Si       0.05091    0.00419    0.45089    1.000
    Si633    Si       0.06019    0.92850    0.45338    1.000
    N634     N        0.07165    0.91180    0.49098    1.000
    N635     N        0.09505    0.99266    0.45132    1.000
    N636     N        0.09739    0.98930    0.38438    1.000
    N637     N        0.09486    0.92927    0.43059    1.000
    N638     N        0.09024    0.84912    0.51983    1.000
    N639     N        0.06885    0.82041    0.58595    1.000
    Si640    Si       0.07167    0.77430    0.59372    1.000
    Si641    Si       0.05990    0.82792    0.54241    1.000
    Si642    Si       0.08038    0.84923    0.61663    1.000
    N643     N        0.05731    0.88618    0.60766    1.000
    Si644    Si       0.08775    0.93796    0.51978    1.000
    N645     N        0.06455    0.97298    0.52605    1.000
    Si646    Si       0.06435    0.92565    0.59153    1.000
    N647     N        0.09345    0.92254    0.56036    1.000
    N648     N        0.07848    0.95723    0.62068    1.000
    N649     N        0.06098    0.83415    0.65568    1.000
    Si650    Si       0.08515    0.79529    0.66557    1.000
    N651     N        0.07804    0.78869    0.70795    1.000
    N652     N        0.05880    0.77277    0.63560    1.000
    Si653    Si       0.06801    0.86374    0.68797    1.000
    N654     N        0.09423    0.85539    0.72224    1.000
    Si655    Si       0.10175    0.81476    0.73592    1.000
    Si656    Si       0.07678    0.93402    0.68946    1.000
    N657     N        0.08037    0.92677    0.73282    1.000
    N658     N        0.09074    0.89728    0.67296    1.000
    N659     N        0.10728    0.96211    0.67977    1.000
    N660     N        0.09772    0.99016    0.74879    1.000
    N661     N        0.07044    0.85042    0.83028    1.000
    Si662    Si       0.05764    0.82597    0.79651    1.000
    N663     N        0.09369    0.81111    0.77778    1.000
    N664     N        0.09215    0.91015    0.85415    1.000
    N665     N        0.07375    0.96383    0.80374    1.000
    Si666    Si       0.06834    0.95838    0.75951    1.000
    Si667    Si       0.06282    0.93901    0.83829    1.000
    Si668    Si       0.04049    0.87618    0.84476    1.000
    Si669    Si       0.06809    0.81521    0.95003    1.000
    N670     N        0.05533    0.85576    0.93947    1.000
    N671     N        0.06298    0.79954    0.99048    1.000
    N672     N        0.10391    0.81027    0.92618    1.000
    Si673    Si       0.07236    0.96259    0.95131    1.000
    N674     N        0.04655    0.92730    0.94065    1.000
    N675     N        0.10390    0.99393    0.87480    1.000
    Si676    Si       0.05861    0.89144    0.96489    1.000
    N677     N        0.10050    0.90560    0.98277    1.000
    N678     N        0.06147    0.00015    0.92733    1.000
    Si679    Si       0.06172    0.99592    0.88431    1.000
    N680     N        0.07234    0.96421    0.99390    1.000
    N681     N        0.14043    0.07026    0.02047    1.000
    Si682    Si       0.15171    0.05404    0.05914    1.000
    Si683    Si       0.11606    0.10620    0.01640    1.000
    N684     N        0.11664    0.05363    0.08664    1.000
    Si685    Si       0.11609    0.02236    0.11729    1.000
    N686     N        0.16053    0.01124    0.06434    1.000
    N687     N        0.13534    0.12766    0.04947    1.000
    Si688    Si       0.12591    0.15729    0.07892    1.000
    Si689    Si       0.14699    0.22540    0.09948    1.000
    N690     N        0.14812    0.23944    0.05907    1.000
    N691     N        0.15809    0.18445    0.09082    1.000
    N692     N        0.12616    0.25013    0.99909    1.000
    N693     N        0.15420    0.19115    0.00217    1.000
    N694     N        0.10684    0.22936    0.10981    1.000
    N695     N        0.11618    0.13922    0.11619    1.000
    N696     N        0.12297    0.04533    0.15612    1.000
    N697     N        0.11556    0.10905    0.17631    1.000
    Si698    Si       0.12876    0.09170    0.21428    1.000
    Si699    Si       0.14378    0.12900    0.14845    1.000
    Si700    Si       0.16327    0.04338    0.16682    1.000
    N701     N        0.16559    0.07375    0.19938    1.000
    Si702    Si       0.10563    0.24757    0.14931    1.000
    N703     N        0.13387    0.17109    0.22485    1.000
    Si704    Si       0.15589    0.19266    0.19199    1.000
    N705     N        0.13114    0.22319    0.17388    1.000
    N706     N        0.13097    0.04460    0.29103    1.000
    Si707    Si       0.14360    0.11972    0.33886    1.000
    N708     N        0.13421    0.10177    0.25677    1.000
    N709     N        0.15047    0.04875    0.35895    1.000
    Si710    Si       0.16296    0.05140    0.32012    1.000
    Si711    Si       0.10834    0.08157    0.28617    1.000
    Si712    Si       0.10570    0.25016    0.35364    1.000
    N713     N        0.14388    0.20654    0.27990    1.000
    N714     N        0.14988    0.16014    0.33072    1.000
    Si715    Si       0.12120    0.18544    0.30912    1.000
    Si716    Si       0.14183    0.24909    0.28799    1.000
    N717     N        0.14475    0.25379    0.33181    1.000
    N718     N        0.11765    0.12526    0.44274    1.000
    Si719    Si       0.13046    0.07021    0.38945    1.000
    N720     N        0.13631    0.05763    0.42935    1.000
    N721     N        0.14165    0.11186    0.38042    1.000
    Si722    Si       0.11491    0.08368    0.45712    1.000
    N723     N        0.15426    0.14948    0.48879    1.000
    N724     N        0.10724    0.24240    0.39746    1.000
    Si725    Si       0.11523    0.13860    0.40355    1.000
    N726     N        0.12882    0.17884    0.40048    1.000
    Si727    Si       0.11448    0.15636    0.47304    1.000
    Si728    Si       0.14446    0.04875    0.52470    1.000
    N729     N        0.14461    0.06077    0.56707    1.000
    Si730    Si       0.13300    0.11879    0.51850    1.000
    N731     N        0.11411    0.02152    0.51191    1.000
    N732     N        0.14544    0.12275    0.60769    1.000
    N733     N        0.13267    0.08263    0.49780    1.000
    Si734    Si       0.10450    0.13129    0.59431    1.000
    Si735    Si       0.14660    0.19045    0.59553    1.000
    N736     N        0.14435    0.23253    0.58350    1.000
    N737     N        0.11089    0.17159    0.58206    1.000
    N738     N        0.15514    0.11392    0.67294    1.000
    Si739    Si       0.12730    0.11915    0.70476    1.000
    Si740    Si       0.12597    0.03678    0.64812    1.000
    N741     N        0.11120    0.02928    0.68846    1.000
    N742     N        0.16203    0.19967    0.70630    1.000
    Si743    Si       0.11939    0.19361    0.70944    1.000
    N744     N        0.10737    0.15543    0.69356    1.000
    N745     N        0.15406    0.18257    0.63805    1.000
    N746     N        0.16218    0.24865    0.65758    1.000
    Si747    Si       0.14765    0.04432    0.81371    1.000
    N748     N        0.14884    0.04843    0.85707    1.000
    Si749    Si       0.11855    0.09092    0.76099    1.000
    N750     N        0.15216    0.07284    0.78258    1.000
    N751     N        0.10719    0.03039    0.80604    1.000
    N752     N        0.14703    0.12283    0.74574    1.000
    Si753    Si       0.16082    0.14500    0.84725    1.000
    N754     N        0.13661    0.14533    0.81188    1.000
    Si755    Si       0.12885    0.22797    0.77028    1.000
    Si756    Si       0.14260    0.15883    0.77099    1.000
    N757     N        0.12373    0.22922    0.81304    1.000
    N758     N        0.11675    0.18955    0.75496    1.000
    N759     N        0.12078    0.25188    0.87286    1.000
    N760     N        0.14944    0.01151    0.91189    1.000
    Si761    Si       0.12160    0.03418    0.88581    1.000
    Si762    Si       0.13852    0.04538    0.98560    1.000
    N763     N        0.14401    0.16633    0.88401    1.000
    Si764    Si       0.16059    0.15099    0.98199    1.000
    N765     N        0.11992    0.13440    0.98292    1.000
    Si766    Si       0.12499    0.21150    0.97639    1.000
    N767     N        0.13857    0.21457    0.93638    1.000
    Si768    Si       0.13476    0.25102    0.91321    1.000
    Si769    Si       0.16583    0.18704    0.91606    1.000
    N770     N        0.13405    0.35602    0.04866    1.000
    Si771    Si       0.15208    0.32210    0.06669    1.000
    N772     N        0.11448    0.30001    0.06350    1.000
    N773     N        0.11163    0.34924    0.10852    1.000
    Si774    Si       0.11531    0.26030    0.04081    1.000
    Si775    Si       0.11339    0.38388    0.08306    1.000
    Si776    Si       0.15353    0.39125    0.03081    1.000
    Si777    Si       0.14248    0.44892    0.08968    1.000
    N778     N        0.14332    0.41463    0.06595    1.000
    N779     N        0.15351    0.50081    0.00067    1.000
    N780     N        0.10560    0.47173    0.09485    1.000
    N781     N        0.12005    0.28630    0.13727    1.000
    Si782    Si       0.13042    0.35003    0.21915    1.000
    N783     N        0.11717    0.35766    0.18045    1.000
    Si784    Si       0.12365    0.37416    0.14323    1.000
    N785     N        0.10809    0.41083    0.12654    1.000
    Si786    Si       0.12925    0.46648    0.20147    1.000
    Si787    Si       0.16308    0.41604    0.23008    1.000
    N788     N        0.15280    0.49669    0.22222    1.000
    N789     N        0.15184    0.43292    0.19077    1.000
    N790     N        0.13116    0.38712    0.23884    1.000
    N791     N        0.14416    0.32774    0.28760    1.000
    Si792    Si       0.16002    0.36042    0.31079    1.000
    N793     N        0.12816    0.38975    0.31816    1.000
    Si794    Si       0.13886    0.42919    0.33603    1.000
    Si795    Si       0.15323    0.48500    0.26647    1.000
    N796     N        0.14487    0.44299    0.26135    1.000
    N797     N        0.12120    0.51095    0.28007    1.000
    Si798    Si       0.12066    0.28438    0.47242    1.000
    N799     N        0.13561    0.36208    0.40977    1.000
    N800     N        0.15758    0.29664    0.40063    1.000
    Si801    Si       0.14327    0.25888    0.41401    1.000
    Si802    Si       0.16399    0.33750    0.38963    1.000
    N803     N        0.14755    0.25650    0.45716    1.000
    Si804    Si       0.14238    0.40552    0.41307    1.000
    Si805    Si       0.12439    0.47296    0.44094    1.000
    N806     N        0.11100    0.49443    0.40614    1.000
    N807     N        0.12601    0.43013    0.44473    1.000
    N808     N        0.12506    0.42391    0.37811    1.000
    N809     N        0.10628    0.48845    0.47779    1.000
    N810     N        0.13293    0.30149    0.50980    1.000
    N811     N        0.14960    0.30104    0.57603    1.000
    Si812    Si       0.12143    0.26906    0.58631    1.000
    Si813    Si       0.16418    0.37990    0.56605    1.000
    Si814    Si       0.11066    0.43034    0.50325    1.000
    N815     N        0.12644    0.39182    0.58514    1.000
    N816     N        0.11787    0.46281    0.60273    1.000
    N817     N        0.15497    0.43778    0.50248    1.000
    Si818    Si       0.11863    0.42002    0.61758    1.000
    N819     N        0.12131    0.35994    0.70268    1.000
    Si820    Si       0.15511    0.34493    0.67980    1.000
    N821     N        0.14294    0.32350    0.64413    1.000
    N822     N        0.14432    0.42208    0.71349    1.000
    N823     N        0.14981    0.43278    0.64686    1.000
    Si824    Si       0.15155    0.47274    0.63047    1.000
    Si825    Si       0.11104    0.39570    0.72416    1.000
    Si826    Si       0.13441    0.26911    0.83376    1.000
    N827     N        0.15003    0.32505    0.77864    1.000
    Si828    Si       0.10719    0.34359    0.78168    1.000
    N829     N        0.11707    0.38606    0.76684    1.000
    N830     N        0.15929    0.47141    0.83237    1.000
    Si831    Si       0.13887    0.40614    0.79816    1.000
    Si832    Si       0.11950    0.46061    0.84323    1.000
    N833     N        0.11062    0.47705    0.75065    1.000
    N834     N        0.10932    0.42239    0.82599    1.000
    Si835    Si       0.14786    0.45280    0.74497    1.000
    Si836    Si       0.12679    0.28828    0.97787    1.000
    N837     N        0.14757    0.34498    0.93307    1.000
    Si838    Si       0.13393    0.34211    0.89310    1.000
    N839     N        0.11141    0.27930    0.93878    1.000
    Si840    Si       0.12360    0.48457    0.97348    1.000
    Si841    Si       0.10672    0.41119    0.89472    1.000
    N842     N        0.15168    0.47167    0.94236    1.000
    Si843    Si       0.14261    0.38452    0.95309    1.000
    N844     N        0.14001    0.38414    0.87915    1.000
    Si845    Si       0.12442    0.48524    0.91134    1.000
    N846     N        0.13151    0.39641    0.99335    1.000
    N847     N        0.11575    0.45202    0.88520    1.000
    N848     N        0.10537    0.40375    0.93853    1.000
    N849     N        0.13588    0.53173    0.06559    1.000
    Si850    Si       0.12944    0.57152    0.04790    1.000
    N851     N        0.11666    0.57932    0.00787    1.000
    Si852    Si       0.10304    0.51442    0.09009    1.000
    Si853    Si       0.16412    0.50954    0.04098    1.000
    Si854    Si       0.13887    0.68125    0.01736    1.000
    N855     N        0.14214    0.70360    0.11077    1.000
    Si856    Si       0.12742    0.74703    0.02983    1.000
    N857     N        0.12146    0.71702    0.99838    1.000
    Si858    Si       0.15959    0.73971    0.09592    1.000
    N859     N        0.11042    0.67189    0.05021    1.000
    N860     N        0.14402    0.64132    0.00245    1.000
    Si861    Si       0.10834    0.69413    0.08571    1.000
    Si862    Si       0.14621    0.64259    0.11636    1.000
    N863     N        0.16200    0.75589    0.05687    1.000
    N864     N        0.14198    0.59944    0.12533    1.000
    N865     N        0.15136    0.54901    0.17531    1.000
    Si866    Si       0.10980    0.53477    0.16857    1.000
    N867     N        0.15553    0.63063    0.21763    1.000
    N868     N        0.16155    0.65867    0.15416    1.000
    N869     N        0.11956    0.72178    0.17060    1.000
    N870     N        0.15587    0.75534    0.22487    1.000
    Si871    Si       0.15446    0.70150    0.15468    1.000
    Si872    Si       0.11866    0.74854    0.20363    1.000
    N873     N        0.12788    0.57495    0.31067    1.000
    Si874    Si       0.12349    0.55358    0.27394    1.000
    Si875    Si       0.12116    0.61722    0.30501    1.000
    Si876    Si       0.10410    0.56293    0.34374    1.000
    N877     N        0.15295    0.62904    0.27812    1.000
    N878     N        0.15353    0.56632    0.24610    1.000
    N879     N        0.10511    0.71459    0.33282    1.000
    N880     N        0.14880    0.70019    0.26588    1.000
    N881     N        0.13528    0.64539    0.33521    1.000
    Si882    Si       0.12308    0.68145    0.35524    1.000
    Si883    Si       0.13696    0.74167    0.25993    1.000
    Si884    Si       0.13580    0.74750    0.32926    1.000
    Si885    Si       0.13675    0.66073    0.24659    1.000
    N886     N        0.15415    0.53829    0.48466    1.000
    Si887    Si       0.12954    0.57389    0.48218    1.000
    Si888    Si       0.15369    0.57827    0.41291    1.000
    N889     N        0.12265    0.58360    0.44137    1.000
    N890     N        0.12341    0.56269    0.38291    1.000
    Si891    Si       0.13153    0.51753    0.37543    1.000
    Si892    Si       0.14737    0.73815    0.39813    1.000
    N893     N        0.15716    0.70631    0.37010    1.000
    N894     N        0.15790    0.67305    0.43720    1.000
    Si895    Si       0.11656    0.68304    0.43142    1.000
    N896     N        0.11938    0.72933    0.43062    1.000
    Si897    Si       0.13820    0.54000    0.57487    1.000
    N898     N        0.13236    0.58192    0.56645    1.000
    N899     N        0.14488    0.60709    0.50526    1.000
    Si900    Si       0.11792    0.61164    0.53904    1.000
    Si901    Si       0.12378    0.51581    0.50469    1.000
    N902     N        0.12862    0.50753    0.54588    1.000
    N903     N        0.16394    0.62652    0.61542    1.000
    Si904    Si       0.13075    0.65121    0.60446    1.000
    Si905    Si       0.13151    0.72487    0.56845    1.000
    N906     N        0.14269    0.69508    0.59873    1.000
    N907     N        0.11695    0.64822    0.56213    1.000
    N908     N        0.10984    0.70677    0.53680    1.000
    N909     N        0.11194    0.75734    0.59065    1.000
    Si910    Si       0.10772    0.61099    0.66344    1.000
    N911     N        0.15094    0.61037    0.74160    1.000
    Si912    Si       0.14450    0.56647    0.73625    1.000
    N913     N        0.12925    0.56992    0.65973    1.000
    N914     N        0.14178    0.50923    0.64975    1.000
    Si915    Si       0.10723    0.53670    0.64465    1.000
    Si916    Si       0.16444    0.54544    0.66922    1.000
    Si917    Si       0.14438    0.64653    0.71728    1.000
    N918     N        0.16368    0.74361    0.70081    1.000
    N919     N        0.13894    0.63719    0.67754    1.000
    N920     N        0.12227    0.67201    0.74453    1.000
    N921     N        0.14357    0.54451    0.77428    1.000
    N922     N        0.11829    0.56535    0.85068    1.000
    N923     N        0.12831    0.61885    0.80873    1.000
    Si924    Si       0.15913    0.62224    0.78103    1.000
    Si925    Si       0.10826    0.60865    0.84428    1.000
    Si926    Si       0.15400    0.55222    0.86980    1.000
    N927     N        0.11703    0.74884    0.80597    1.000
    Si928    Si       0.16248    0.69123    0.75661    1.000
    N929     N        0.16609    0.57866    0.90079    1.000
    Si930    Si       0.14452    0.61176    0.91576    1.000
    Si931    Si       0.11212    0.61580    0.98836    1.000
    N932     N        0.13491    0.51669    0.88296    1.000
    N933     N        0.11528    0.60677    0.94535    1.000
    N934     N        0.12596    0.63008    0.87719    1.000
    Si935    Si       0.15885    0.65858    0.88005    1.000
    N936     N        0.14314    0.69881    0.88475    1.000
    N937     N        0.11013    0.74200    0.93224    1.000
    N938     N        0.12535    0.78542    0.00986    1.000
    Si939    Si       0.11840    0.80136    0.10234    1.000
    N940     N        0.15335    0.82635    0.10403    1.000
    Si941    Si       0.12072    0.87118    0.99978    1.000
    N942     N        0.14342    0.76992    0.12145    1.000
    N943     N        0.14900    0.88353    0.03039    1.000
    Si944    Si       0.13418    0.99342    0.03641    1.000
    N945     N        0.12616    0.95138    0.03554    1.000
    Si946    Si       0.15607    0.92177    0.05034    1.000
    Si947    Si       0.11004    0.87228    0.22781    1.000
    Si948    Si       0.13395    0.81670    0.20275    1.000
    N949     N        0.10832    0.85148    0.19120    1.000
    N950     N        0.13779    0.83669    0.24368    1.000
    N951     N        0.12907    0.87574    0.12992    1.000
    N952     N        0.15652    0.93032    0.16064    1.000
    Si953    Si       0.16022    0.91623    0.20153    1.000
    Si954    Si       0.10930    0.95461    0.22744    1.000
    Si955    Si       0.14926    0.97427    0.16660    1.000
    Si956    Si       0.13563    0.91855    0.12465    1.000
    N957     N        0.11126    0.97000    0.18676    1.000
    N958     N        0.12567    0.91295    0.22535    1.000
    N959     N        0.14317    0.99012    0.12704    1.000
    Si960    Si       0.13437    0.81134    0.28191    1.000
    N961     N        0.12719    0.76910    0.28987    1.000
    N962     N        0.15343    0.86463    0.34527    1.000
    N963     N        0.13215    0.76629    0.36840    1.000
    Si964    Si       0.11431    0.88834    0.34641    1.000
    N965     N        0.12363    0.98193    0.31591    1.000
    N966     N        0.13557    0.92764    0.34623    1.000
    Si967    Si       0.15696    0.95773    0.32472    1.000
    N968     N        0.13472    0.98121    0.24997    1.000
    Si969    Si       0.11602    0.00675    0.27926    1.000
    Si970    Si       0.12044    0.82697    0.44028    1.000
    N971     N        0.13268    0.82787    0.39877    1.000
    N972     N        0.12248    0.79205    0.46548    1.000
    Si973    Si       0.15720    0.80411    0.48541    1.000
    N974     N        0.15834    0.84003    0.46165    1.000
    Si975    Si       0.10789    0.79840    0.38158    1.000
    Si976    Si       0.16235    0.85596    0.38863    1.000
    Si977    Si       0.12243    0.99096    0.48337    1.000
    N978     N        0.15175    0.89169    0.41119    1.000
    Si979    Si       0.11035    0.89210    0.41828    1.000
    N980     N        0.15360    0.95757    0.41418    1.000
    Si981    Si       0.11122    0.96676    0.41714    1.000
    Si982    Si       0.13233    0.85428    0.53225    1.000
    N983     N        0.13204    0.86830    0.57216    1.000
    N984     N        0.15109    0.81415    0.52784    1.000
    Si985    Si       0.15300    0.84439    0.60222    1.000
    Si986    Si       0.14220    0.77244    0.61956    1.000
    N987     N        0.15949    0.80312    0.59412    1.000
    Si988    Si       0.13096    0.91134    0.58070    1.000
    N989     N        0.12671    0.95314    0.50425    1.000
    N990     N        0.15512    0.88591    0.51097    1.000
    N991     N        0.13256    0.92199    0.62246    1.000
    Si992    Si       0.16111    0.92996    0.52048    1.000
    N993     N        0.12032    0.85144    0.63164    1.000
    N994     N        0.14169    0.80163    0.72450    1.000
    N995     N        0.12606    0.78344    0.65707    1.000
    Si996    Si       0.15469    0.78433    0.68789    1.000
    Si997    Si       0.10853    0.89283    0.74315    1.000
    Si998    Si       0.12703    0.88985    0.64943    1.000
    N999     N        0.14601    0.91133    0.73506    1.000
    N1000    N        0.15637    0.97615    0.72114    1.000
    N1001    N        0.13962    0.99728    0.63143    1.000
    Si1002   Si       0.11746    0.99283    0.70930    1.000
    Si1003   Si       0.11788    0.96047    0.63767    1.000
    N1004    N        0.13511    0.79784    0.84215    1.000
    Si1005   Si       0.12655    0.79407    0.79985    1.000
    N1006    N        0.14077    0.87042    0.85059    1.000
    Si1007   Si       0.15803    0.83098    0.86004    1.000
    Si1008   Si       0.10498    0.87780    0.82592    1.000
    Si1009   Si       0.13556    0.75487    0.84609    1.000
    Si1010   Si       0.10564    0.98958    0.79322    1.000
    N1011    N        0.14062    0.96386    0.79284    1.000
    Si1012   Si       0.15770    0.94906    0.75508    1.000
    N1013    N        0.10984    0.88633    0.78525    1.000
    N1014    N        0.14101    0.84423    0.97188    1.000
    Si1015   Si       0.13054    0.84639    0.93074    1.000
    Si1016   Si       0.11649    0.77456    0.90489    1.000
    Si1017   Si       0.15558    0.80914    0.99179    1.000
    N1018    N        0.15986    0.76496    0.89906    1.000
    N1019    N        0.16244    0.83250    0.90436    1.000
    N1020    N        0.15198    0.00629    0.99845    1.000
    Si1021   Si       0.12716    0.92059    0.94991    1.000
    Si1022   Si       0.13311    0.97311    0.89968    1.000
    N1023    N        0.10910    0.95488    0.93054    1.000
    N1024    N        0.15264    0.93743    0.88011    1.000
    Si1025   Si       0.12842    0.90198    0.87881    1.000
    N1026    N        0.12573    0.88682    0.91982    1.000
    N1027    N        0.18267    0.07880    0.07063    1.000
    Si1028   Si       0.17688    0.11379    0.04471    1.000
    Si1029   Si       0.19840    0.07958    0.11224    1.000
    N1030    N        0.18372    0.12056    0.00125    1.000
    N1031    N        0.20590    0.13877    0.06451    1.000
    N1032    N        0.20536    0.20601    0.04660    1.000
    Si1033   Si       0.19873    0.17871    0.07924    1.000
    Si1034   Si       0.21512    0.24224    0.11666    1.000
    Si1035   Si       0.16963    0.22406    0.02470    1.000
    N1036    N        0.18322    0.03956    0.12620    1.000
    N1037    N        0.18095    0.10699    0.13961    1.000
    Si1038   Si       0.20605    0.08010    0.21192    1.000
    N1039    N        0.22244    0.11678    0.19570    1.000
    Si1040   Si       0.21246    0.00757    0.20514    1.000
    N1041    N        0.17457    0.00559    0.18499    1.000
    N1042    N        0.18432    0.21048    0.22190    1.000
    N1043    N        0.16745    0.16230    0.16407    1.000
    Si1044   Si       0.20400    0.13733    0.16209    1.000
    N1045    N        0.17347    0.24999    0.12498    1.000
    Si1046   Si       0.20107    0.24777    0.23661    1.000
    N1047    N        0.19812    0.02968    0.30867    1.000
    Si1048   Si       0.17601    0.10916    0.27208    1.000
    N1049    N        0.20299    0.07889    0.25531    1.000
    N1050    N        0.17331    0.09544    0.31702    1.000
    Si1051   Si       0.21253    0.10427    0.33588    1.000
    Si1052   Si       0.21630    0.03915    0.27048    1.000
    N1053    N        0.20017    0.00779    0.24742    1.000
    N1054    N        0.21808    0.14714    0.32523    1.000
    Si1055   Si       0.18174    0.24610    0.35326    1.000
    N1056    N        0.20267    0.21367    0.33445    1.000
    Si1057   Si       0.19032    0.17293    0.34367    1.000
    N1058    N        0.19075    0.15020    0.26524    1.000
    Si1059   Si       0.16677    0.18265    0.24998    1.000
    N1060    N        0.22054    0.10119    0.37739    1.000
    Si1061   Si       0.17109    0.03610    0.44408    1.000
    N1062    N        0.19773    0.06541    0.46066    1.000
    N1063    N        0.19429    0.01331    0.41534    1.000
    N1064    N        0.21468    0.12929    0.44030    1.000
    Si1065   Si       0.16931    0.19332    0.40717    1.000
    N1066    N        0.19686    0.16693    0.38684    1.000
    N1067    N        0.17361    0.23446    0.39396    1.000
    Si1068   Si       0.17626    0.22848    0.47656    1.000
    N1069    N        0.21643    0.24483    0.48225    1.000
    Si1070   Si       0.19282    0.15606    0.46642    1.000
    N1071    N        0.17995    0.19412    0.44896    1.000
    N1072    N        0.20305    0.08234    0.59199    1.000
    Si1073   Si       0.19785    0.04537    0.56836    1.000
    N1074    N        0.18613    0.03413    0.52598    1.000
    N1075    N        0.19835    0.01235    0.59620    1.000
    Si1076   Si       0.21753    0.05226    0.49825    1.000
    N1077    N        0.16573    0.12465    0.54595    1.000
    Si1078   Si       0.16571    0.09835    0.57961    1.000
    Si1079   Si       0.17699    0.22440    0.55487    1.000
    N1080    N        0.18423    0.18283    0.56947    1.000
    Si1081   Si       0.17768    0.16426    0.52563    1.000
    N1082    N        0.21658    0.24135    0.55344    1.000
    N1083    N        0.21484    0.15932    0.50453    1.000
    N1084    N        0.16716    0.20944    0.51470    1.000
    Si1085   Si       0.21835    0.15921    0.58330    1.000
    N1086    N        0.18577    0.07098    0.72138    1.000
    Si1087   Si       0.18237    0.08089    0.67884    1.000
    N1088    N        0.16842    0.05046    0.65220    1.000
    Si1089   Si       0.21750    0.04045    0.73227    1.000
    Si1090   Si       0.18015    0.01195    0.63517    1.000
    N1091    N        0.20742    0.14659    0.62532    1.000
    Si1092   Si       0.17371    0.20790    0.66529    1.000
    Si1093   Si       0.16725    0.14010    0.63997    1.000
    Si1094   Si       0.18836    0.21385    0.74091    1.000
    N1095    N        0.21618    0.19982    0.66629    1.000
    N1096    N        0.20753    0.12145    0.78094    1.000
    Si1097   Si       0.18149    0.09362    0.75894    1.000
    N1098    N        0.17644    0.01504    0.80188    1.000
    Si1099   Si       0.18684    0.06922    0.86647    1.000
    Si1100   Si       0.21456    0.03322    0.80017    1.000
    N1101    N        0.21510    0.05782    0.83472    1.000
    N1102    N        0.17804    0.11009    0.86408    1.000
    Si1103   Si       0.20691    0.16157    0.79655    1.000
    N1104    N        0.17978    0.18083    0.76910    1.000
    N1105    N        0.19626    0.16875    0.83744    1.000
    Si1106   Si       0.22142    0.18831    0.86737    1.000
    N1107    N        0.16547    0.24701    0.75749    1.000
    Si1108   Si       0.18231    0.03323    0.93057    1.000
    N1109    N        0.20407    0.05931    0.90410    1.000
    Si1110   Si       0.20135    0.09190    0.97379    1.000
    N1111    N        0.16996    0.06208    0.96141    1.000
    N1112    N        0.20590    0.00600    0.95412    1.000
    N1113    N        0.22716    0.11237    0.94247    1.000
    N1114    N        0.19854    0.20902    0.89717    1.000
    Si1115   Si       0.21209    0.25347    0.90296    1.000
    N1116    N        0.18277    0.16195    0.94622    1.000
    Si1117   Si       0.22607    0.15703    0.93544    1.000
    N1118    N        0.18897    0.31851    0.04238    1.000
    Si1119   Si       0.19860    0.29895    0.00514    1.000
    N1120    N        0.17242    0.31733    0.10408    1.000
    Si1121   Si       0.21547    0.31336    0.07787    1.000
    N1122    N        0.22177    0.26898    0.08294    1.000
    N1123    N        0.19716    0.25769    0.01385    1.000
    N1124    N        0.17046    0.47489    0.06543    1.000
    N1125    N        0.19203    0.40428    0.01552    1.000
    Si1126   Si       0.20142    0.46435    0.09337    1.000
    Si1127   Si       0.22064    0.43701    0.02686    1.000
    N1128    N        0.21797    0.47813    0.00816    1.000
    Si1129   Si       0.19341    0.34509    0.13398    1.000
    Si1130   Si       0.20239    0.31817    0.20269    1.000
    N1131    N        0.18919    0.31362    0.16224    1.000
    N1132    N        0.21837    0.27739    0.21146    1.000
    N1133    N        0.16821    0.37849    0.14083    1.000
    N1134    N        0.16640    0.32779    0.22477    1.000
    Si1135   Si       0.16374    0.29075    0.13706    1.000
    N1136    N        0.21755    0.42416    0.16952    1.000
    N1137    N        0.17343    0.44504    0.12179    1.000
    Si1138   Si       0.17583    0.42060    0.15746    1.000
    N1139    N        0.20130    0.39994    0.22979    1.000
    N1140    N        0.21365    0.32044    0.27226    1.000
    N1141    N        0.21032    0.27791    0.36109    1.000
    Si1142   Si       0.17365    0.30787    0.26231    1.000
    Si1143   Si       0.21349    0.36470    0.25522    1.000
    N1144    N        0.17408    0.34479    0.34821    1.000
    Si1145   Si       0.21730    0.34858    0.35787    1.000
    N1146    N        0.16811    0.26505    0.25851    1.000
    N1147    N        0.19229    0.38030    0.29149    1.000
    Si1148   Si       0.20975    0.41200    0.31849    1.000
    N1149    N        0.17941    0.44178    0.33202    1.000
    Si1150   Si       0.19277    0.48376    0.33069    1.000
    N1151    N        0.18583    0.49724    0.29123    1.000
    N1152    N        0.17264    0.50258    0.36465    1.000
    N1153    N        0.21917    0.39108    0.35532    1.000
    Si1154   Si       0.20131    0.29242    0.40089    1.000
    N1155    N        0.20920    0.33578    0.39866    1.000
    N1156    N        0.22778    0.35391    0.47081    1.000
    N1157    N        0.22834    0.28771    0.43380    1.000
    N1158    N        0.18365    0.41726    0.41819    1.000
    Si1159   Si       0.17198    0.43611    0.46032    1.000
    N1160    N        0.20909    0.42325    0.48192    1.000
    N1161    N        0.16767    0.47958    0.44934    1.000
    Si1162   Si       0.21467    0.41632    0.38982    1.000
    N1163    N        0.20374    0.30297    0.51635    1.000
    N1164    N        0.18270    0.35841    0.59796    1.000
    N1165    N        0.17626    0.35630    0.52984    1.000
    Si1166   Si       0.17113    0.31801    0.61072    1.000
    Si1167   Si       0.21733    0.34468    0.51362    1.000
    Si1168   Si       0.16607    0.31443    0.53379    1.000
    Si1169   Si       0.19369    0.43457    0.52377    1.000
    Si1170   Si       0.20875    0.44310    0.58682    1.000
    N1171    N        0.18314    0.41739    0.56267    1.000
    N1172    N        0.18897    0.47835    0.60845    1.000
    N1173    N        0.22574    0.45629    0.54661    1.000
    Si1174   Si       0.18558    0.28158    0.66693    1.000
    N1175    N        0.20159    0.29576    0.62863    1.000
    N1176    N        0.17864    0.31292    0.69771    1.000
    Si1177   Si       0.21581    0.30162    0.71862    1.000
    Si1178   Si       0.20563    0.37753    0.63092    1.000
    N1179    N        0.18074    0.37712    0.66745    1.000
    N1180    N        0.22100    0.26754    0.69016    1.000
    Si1181   Si       0.21534    0.45980    0.72016    1.000
    N1182    N        0.21101    0.43656    0.68455    1.000
    N1183    N        0.22289    0.41668    0.61961    1.000
    Si1184   Si       0.17269    0.41808    0.67916    1.000
    N1185    N        0.17901    0.48007    0.73138    1.000
    Si1186   Si       0.19904    0.30282    0.85003    1.000
    Si1187   Si       0.18812    0.34768    0.78865    1.000
    Si1188   Si       0.17559    0.36880    0.85659    1.000
    Si1189   Si       0.17415    0.28545    0.77893    1.000
    N1190    N        0.21842    0.33010    0.82195    1.000
    N1191    N        0.17418    0.27748    0.82244    1.000
    N1192    N        0.21473    0.37517    0.76571    1.000
    N1193    N        0.21007    0.30302    0.76137    1.000
    N1194    N        0.16679    0.37754    0.81520    1.000
    N1195    N        0.16721    0.32817    0.86704    1.000
    Si1196   Si       0.20034    0.46601    0.84146    1.000
    Si1197   Si       0.20851    0.41507    0.78304    1.000
    N1198    N        0.21892    0.42967    0.82493    1.000
    N1199    N        0.16844    0.42871    0.77487    1.000
    N1200    N        0.21909    0.31936    0.92937    1.000
    Si1201   Si       0.17600    0.31148    0.93472    1.000
    N1202    N        0.17419    0.27085    0.91484    1.000
    N1203    N        0.21042    0.37743    0.88143    1.000
    N1204    N        0.16707    0.30268    0.97705    1.000
    Si1205   Si       0.18396    0.44536    0.92690    1.000
    N1206    N        0.20301    0.44996    0.88588    1.000
    N1207    N        0.21547    0.47018    0.94407    1.000
    Si1208   Si       0.18733    0.49585    0.97146    1.000
    N1209    N        0.17914    0.40746    0.94854    1.000
    Si1210   Si       0.21046    0.39877    0.97651    1.000
    Si1211   Si       0.19818    0.56594    0.07131    1.000
    N1212    N        0.20316    0.52969    0.04830    1.000
    Si1213   Si       0.17782    0.61707    0.01289    1.000
    N1214    N        0.19343    0.55322    0.11325    1.000
    N1215    N        0.16886    0.58793    0.04753    1.000
    N1216    N        0.21266    0.63532    0.03058    1.000
    Si1217   Si       0.19980    0.66683    0.05855    1.000
    N1218    N        0.20152    0.73518    0.10436    1.000
    N1219    N        0.18059    0.69210    0.02920    1.000
    Si1220   Si       0.21370    0.70669    0.00462    1.000
    N1221    N        0.17645    0.64773    0.08794    1.000
    N1222    N        0.21298    0.75137    0.00885    1.000
    N1223    N        0.19660    0.59903    0.16817    1.000
    N1224    N        0.20953    0.52867    0.22829    1.000
    Si1225   Si       0.17003    0.57356    0.14329    1.000
    Si1226   Si       0.16751    0.53502    0.21435    1.000
    N1227    N        0.21685    0.65315    0.20082    1.000
    Si1228   Si       0.18099    0.63575    0.18334    1.000
    N1229    N        0.18919    0.71561    0.17793    1.000
    Si1230   Si       0.19434    0.73989    0.21404    1.000
    N1231    N        0.20197    0.61282    0.32644    1.000
    N1232    N        0.21489    0.61101    0.25745    1.000
    N1233    N        0.21282    0.55939    0.36150    1.000
    Si1234   Si       0.21800    0.52145    0.27121    1.000
    Si1235   Si       0.20846    0.60303    0.36822    1.000
    Si1236   Si       0.17217    0.60551    0.24727    1.000
    Si1237   Si       0.19730    0.69697    0.35633    1.000
    N1238    N        0.19576    0.68040    0.31600    1.000
    Si1239   Si       0.18718    0.71173    0.28570    1.000
    N1240    N        0.17896    0.74439    0.31411    1.000
    Si1241   Si       0.17590    0.64385    0.31212    1.000
    N1242    N        0.20797    0.71985    0.24950    1.000
    N1243    N        0.17911    0.60973    0.39849    1.000
    Si1244   Si       0.18251    0.52011    0.45611    1.000
    Si1245   Si       0.20070    0.52665    0.38733    1.000
    N1246    N        0.17670    0.54286    0.41986    1.000
    N1247    N        0.21135    0.66501    0.38479    1.000
    Si1248   Si       0.18728    0.64747    0.41616    1.000
    N1249    N        0.18330    0.75115    0.41517    1.000
    N1250    N        0.21207    0.64803    0.45330    1.000
    Si1251   Si       0.18729    0.67962    0.47052    1.000
    N1252    N        0.21085    0.71604    0.46616    1.000
    Si1253   Si       0.21415    0.75736    0.45050    1.000
    N1254    N        0.19405    0.61129    0.55768    1.000
    Si1255   Si       0.20715    0.51898    0.61110    1.000
    N1256    N        0.17908    0.54784    0.58882    1.000
    Si1257   Si       0.18080    0.62833    0.51709    1.000
    N1258    N        0.21460    0.60491    0.50139    1.000
    Si1259   Si       0.17187    0.59200    0.58959    1.000
    N1260    N        0.18192    0.67260    0.51223    1.000
    Si1261   Si       0.19445    0.70608    0.54139    1.000
    N1262    N        0.20899    0.69452    0.58303    1.000
    Si1263   Si       0.18250    0.70632    0.61609    1.000
    N1264    N        0.16635    0.74120    0.54974    1.000
    N1265    N        0.20303    0.61148    0.67102    1.000
    N1266    N        0.20361    0.54231    0.64958    1.000
    Si1267   Si       0.19813    0.51908    0.73180    1.000
    N1268    N        0.17297    0.54575    0.71226    1.000
    N1269    N        0.18001    0.67137    0.72114    1.000
    Si1270   Si       0.19608    0.74727    0.72873    1.000
    Si1271   Si       0.20814    0.68560    0.69252    1.000
    N1272    N        0.17785    0.74950    0.62393    1.000
    N1273    N        0.18937    0.68301    0.65220    1.000
    Si1274   Si       0.17569    0.64106    0.65389    1.000
    N1275    N        0.18561    0.54649    0.83976    1.000
    N1276    N        0.19030    0.59379    0.79242    1.000
    N1277    N        0.21174    0.53189    0.76982    1.000
    Si1278   Si       0.18295    0.55105    0.79704    1.000
    Si1279   Si       0.20188    0.73681    0.80604    1.000
    N1280    N        0.18284    0.72817    0.76801    1.000
    Si1281   Si       0.20750    0.66328    0.81536    1.000
    N1282    N        0.19604    0.65878    0.85745    1.000
    N1283    N        0.17749    0.74137    0.84150    1.000
    N1284    N        0.17599    0.66172    0.78676    1.000
    N1285    N        0.19498    0.60921    0.97227    1.000
    N1286    N        0.21041    0.53542    0.98133    1.000
    Si1287   Si       0.17745    0.72811    0.88490    1.000
    N1288    N        0.21230    0.70708    0.90022    1.000
    N1289    N        0.16964    0.64601    0.91985    1.000
    Si1290   Si       0.19942    0.64717    0.95010    1.000
    N1291    N        0.20872    0.68736    0.96707    1.000
    N1292    N        0.19831    0.86297    0.07404    1.000
    Si1293   Si       0.18498    0.85748    0.03435    1.000
    Si1294   Si       0.19823    0.77733    0.04313    1.000
    N1295    N        0.18351    0.81496    0.02492    1.000
    Si1296   Si       0.16711    0.86779    0.10638    1.000
    N1297    N        0.20733    0.87101    0.99803    1.000
    N1298    N        0.19542    0.94003    0.04583    1.000
    N1299    N        0.21356    0.97422    0.10395    1.000
    Si1300   Si       0.20583    0.93435    0.08907    1.000
    Si1301   Si       0.17933    0.00217    0.10301    1.000
    N1302    N        0.16503    0.91675    0.09398    1.000
    Si1303   Si       0.17068    0.80067    0.13512    1.000
    N1304    N        0.20549    0.82553    0.23231    1.000
    N1305    N        0.20136    0.87163    0.13374    1.000
    Si1306   Si       0.20949    0.80677    0.18726    1.000
    N1307    N        0.21186    0.78971    0.14278    1.000
    Si1308   Si       0.21103    0.87630    0.17471    1.000
    N1309    N        0.16683    0.81547    0.17467    1.000
    Si1310   Si       0.17887    0.85657    0.24240    1.000
    N1311    N        0.18127    0.87910    0.20631    1.000
    N1312    N        0.18371    0.94665    0.21961    1.000
    Si1313   Si       0.20277    0.78211    0.31347    1.000
    Si1314   Si       0.18285    0.85254    0.31734    1.000
    N1315    N        0.17423    0.81494    0.30040    1.000
    N1316    N        0.20992    0.79092    0.35497    1.000
    N1317    N        0.18716    0.87893    0.28144    1.000
    N1318    N        0.18777    0.97738    0.35190    1.000
    N1319    N        0.18390    0.94943    0.28968    1.000
    Si1320   Si       0.21057    0.91614    0.28439    1.000
    Si1321   Si       0.17646    0.97237    0.25388    1.000
    Si1322   Si       0.21979    0.00332    0.33538    1.000
    N1323    N        0.20289    0.84552    0.39481    1.000
    N1324    N        0.19313    0.78483    0.47874    1.000
    Si1325   Si       0.18295    0.86886    0.48261    1.000
    Si1326   Si       0.21252    0.75931    0.38375    1.000
    N1327    N        0.19989    0.89970    0.45594    1.000
    Si1328   Si       0.17938    0.92186    0.42577    1.000
    N1329    N        0.21391    0.94320    0.40573    1.000
    Si1330   Si       0.18594    0.97722    0.39471    1.000
    N1331    N        0.16149    0.00364    0.47160    1.000
    N1332    N        0.18578    0.87239    0.60538    1.000
    N1333    N        0.21430    0.78915    0.54242    1.000
    Si1334   Si       0.17091    0.78519    0.55428    1.000
    N1335    N        0.21818    0.84802    0.49685    1.000
    Si1336   Si       0.20009    0.91108    0.58616    1.000
    N1337    N        0.19815    0.95250    0.50764    1.000
    Si1338   Si       0.19363    0.99468    0.50123    1.000
    N1339    N        0.16693    0.92805    0.56233    1.000
    Si1340   Si       0.21107    0.83631    0.69033    1.000
    N1341    N        0.18920    0.80280    0.66952    1.000
    N1342    N        0.18313    0.85461    0.71960    1.000
    Si1343   Si       0.20743    0.77675    0.63843    1.000
    N1344    N        0.20645    0.79003    0.73640    1.000
    Si1345   Si       0.17558    0.81917    0.74415    1.000
    N1346    N        0.21909    0.99753    0.72999    1.000
    N1347    N        0.20153    0.98504    0.66323    1.000
    N1348    N        0.16543    0.89060    0.66918    1.000
    Si1349   Si       0.17894    0.89633    0.71096    1.000
    N1350    N        0.21150    0.92606    0.62637    1.000
    Si1351   Si       0.19671    0.97078    0.70409    1.000
    Si1352   Si       0.19883    0.88974    0.64106    1.000
    N1353    N        0.21044    0.92974    0.70684    1.000
    N1354    N        0.19767    0.82193    0.84823    1.000
    Si1355   Si       0.20351    0.80792    0.80803    1.000
    N1356    N        0.16522    0.80944    0.78444    1.000
    N1357    N        0.19720    0.95250    0.77278    1.000
    Si1358   Si       0.18017    0.97299    0.80712    1.000
    N1359    N        0.20370    0.95833    0.83897    1.000
    Si1360   Si       0.18122    0.79669    0.91889    1.000
    N1361    N        0.18148    0.79046    0.96220    1.000
    Si1362   Si       0.20084    0.90167    0.96869    1.000
    Si1363   Si       0.19568    0.93906    0.87694    1.000
    Si1364   Si       0.19676    0.96241    0.95477    1.000
    N1365    N        0.21511    0.88342    0.93451    1.000
    N1366    N        0.20660    0.95502    0.91422    1.000
    N1367    N        0.16701    0.93052    0.96381    1.000
    Si1368   Si       0.26687    0.06059    0.08487    1.000
    N1369    N        0.25439    0.08586    0.05147    1.000
    N1370    N        0.26027    0.01785    0.07971    1.000
    Si1371   Si       0.26158    0.08846    0.00729    1.000
    Si1372   Si       0.24649    0.12922    0.05549    1.000
    N1373    N        0.24212    0.07043    0.11919    1.000
    N1374    N        0.25647    0.13396    0.01161    1.000
    N1375    N        0.27140    0.15196    0.08274    1.000
    Si1376   Si       0.25745    0.17422    0.11737    1.000
    Si1377   Si       0.22411    0.24430    0.04809    1.000
    N1378    N        0.22268    0.19979    0.10790    1.000
    N1379    N        0.26421    0.25690    0.03558    1.000
    N1380    N        0.27963    0.08232    0.17251    1.000
    Si1381   Si       0.26223    0.12055    0.17782    1.000
    N1382    N        0.26416    0.01042    0.15031    1.000
    Si1383   Si       0.25123    0.05246    0.15775    1.000
    N1384    N        0.22498    0.04562    0.19169    1.000
    N1385    N        0.24240    0.25523    0.14526    1.000
    N1386    N        0.24333    0.14592    0.14615    1.000
    Si1387   Si       0.28262    0.23841    0.14613    1.000
    N1388    N        0.24795    0.08205    0.32415    1.000
    N1389    N        0.26006    0.04327    0.27375    1.000
    Si1390   Si       0.26713    0.08506    0.28753    1.000
    N1391    N        0.25673    0.12329    0.26698    1.000
    N1392    N        0.23638    0.02986    0.36541    1.000
    N1393    N        0.25638    0.18840    0.29011    1.000
    Si1394   Si       0.23409    0.22284    0.30488    1.000
    Si1395   Si       0.23191    0.15304    0.28397    1.000
    N1396    N        0.23026    0.24286    0.26804    1.000
    N1397    N        0.26299    0.25447    0.31866    1.000
    Si1398   Si       0.25096    0.07062    0.36823    1.000
    Si1399   Si       0.23565    0.09125    0.45095    1.000
    Si1400   Si       0.23475    0.02382    0.40823    1.000
    N1401    N        0.25104    0.06167    0.41898    1.000
    N1402    N        0.27783    0.10692    0.45285    1.000
    N1403    N        0.23105    0.01004    0.48752    1.000
    N1404    N        0.27111    0.15005    0.39739    1.000
    N1405    N        0.24877    0.21468    0.41790    1.000
    Si1406   Si       0.23999    0.24611    0.44491    1.000
    Si1407   Si       0.22792    0.13913    0.39947    1.000
    N1408    N        0.24597    0.04028    0.56118    1.000
    Si1409   Si       0.24404    0.01732    0.59768    1.000
    N1410    N        0.26999    0.10516    0.61576    1.000
    N1411    N        0.24512    0.08498    0.49890    1.000
    Si1412   Si       0.28052    0.11417    0.57305    1.000
    N1413    N        0.24510    0.13559    0.55808    1.000
    N1414    N        0.26300    0.19815    0.53151    1.000
    Si1415   Si       0.25490    0.15739    0.52164    1.000
    Si1416   Si       0.25218    0.21807    0.56731    1.000
    N1417    N        0.24401    0.19069    0.60035    1.000
    N1418    N        0.24798    0.04292    0.63216    1.000
    Si1419   Si       0.25121    0.09271    0.69945    1.000
    N1420    N        0.25171    0.04976    0.70696    1.000
    N1421    N        0.26363    0.11140    0.73824    1.000
    Si1422   Si       0.27134    0.04414    0.66920    1.000
    Si1423   Si       0.23279    0.08428    0.62541    1.000
    N1424    N        0.22280    0.09317    0.66776    1.000
    Si1425   Si       0.23983    0.17192    0.64149    1.000
    Si1426   Si       0.23729    0.22807    0.69228    1.000
    N1427    N        0.23179    0.21380    0.73562    1.000
    N1428    N        0.27486    0.15740    0.66213    1.000
    N1429    N        0.27785    0.22260    0.68217    1.000
    Si1430   Si       0.24415    0.10012    0.77469    1.000
    Si1431   Si       0.25601    0.07127    0.84239    1.000
    N1432    N        0.27163    0.09561    0.80785    1.000
    N1433    N        0.22396    0.06228    0.76985    1.000
    N1434    N        0.24598    0.17517    0.78948    1.000
    N1435    N        0.24878    0.21338    0.84711    1.000
    Si1436   Si       0.26491    0.20024    0.75965    1.000
    Si1437   Si       0.27286    0.19245    0.81894    1.000
    N1438    N        0.25661    0.09981    0.87398    1.000
    Si1439   Si       0.23681    0.02243    0.98014    1.000
    Si1440   Si       0.23908    0.08284    0.91032    1.000
    N1441    N        0.27085    0.06159    0.92503    1.000
    N1442    N        0.23038    0.06410    0.98940    1.000
    N1443    N        0.27977    0.01673    0.97315    1.000
    N1444    N        0.24201    0.16057    0.89308    1.000
    Si1445   Si       0.26704    0.22131    0.94746    1.000
    N1446    N        0.24331    0.25536    0.93402    1.000
    N1447    N        0.24639    0.18617    0.96233    1.000
    Si1448   Si       0.27670    0.13907    0.87574    1.000
    Si1449   Si       0.27137    0.17041    0.99369    1.000
    Si1450   Si       0.26925    0.29961    0.02572    1.000
    Si1451   Si       0.26641    0.35482    0.08688    1.000
    N1452    N        0.25480    0.32439    0.05711    1.000
    N1453    N        0.22973    0.34536    0.10999    1.000
    N1454    N        0.27564    0.39557    0.07426    1.000
    Si1455   Si       0.27005    0.43605    0.08728    1.000
    N1456    N        0.22990    0.44142    0.06949    1.000
    N1457    N        0.23127    0.35024    0.21163    1.000
    Si1458   Si       0.24991    0.27593    0.18214    1.000
    Si1459   Si       0.27206    0.34677    0.19346    1.000
    N1460    N        0.27051    0.31167    0.16918    1.000
    N1461    N        0.22325    0.48540    0.12582    1.000
    N1462    N        0.27359    0.43774    0.12968    1.000
    N1463    N        0.26864    0.38325    0.17037    1.000
    N1464    N        0.25900    0.48061    0.18700    1.000
    Si1465   Si       0.23426    0.39706    0.20048    1.000
    N1466    N        0.26007    0.42151    0.22655    1.000
    Si1467   Si       0.24156    0.45663    0.15349    1.000
    N1468    N        0.25440    0.37022    0.27530    1.000
    Si1469   Si       0.25158    0.28297    0.34825    1.000
    N1470    N        0.24514    0.32464    0.33464    1.000
    Si1471   Si       0.25243    0.33012    0.29355    1.000
    Si1472   Si       0.26973    0.26279    0.27622    1.000
    N1473    N        0.28158    0.30226    0.27580    1.000
    N1474    N        0.24297    0.43208    0.30105    1.000
    Si1475   Si       0.26034    0.46943    0.30780    1.000
    Si1476   Si       0.26404    0.41005    0.26845    1.000
    N1477    N        0.23677    0.49573    0.33858    1.000
    N1478    N        0.25074    0.49404    0.27393    1.000
    Si1479   Si       0.23663    0.33190    0.43533    1.000
    N1480    N        0.28022    0.32995    0.43808    1.000
    N1481    N        0.27939    0.27937    0.38133    1.000
    N1482    N        0.28050    0.26016    0.45323    1.000
    N1483    N        0.24544    0.39569    0.41692    1.000
    N1484    N        0.24411    0.44756    0.37998    1.000
    Si1485   Si       0.27543    0.42099    0.39828    1.000
    Si1486   Si       0.23360    0.39766    0.45829    1.000
    N1487    N        0.27491    0.40612    0.47404    1.000
    Si1488   Si       0.25796    0.48832    0.37937    1.000
    N1489    N        0.25244    0.36186    0.53344    1.000
    N1490    N        0.25369    0.31063    0.58378    1.000
    N1491    N        0.27147    0.27110    0.52362    1.000
    Si1492   Si       0.22798    0.26588    0.51764    1.000
    Si1493   Si       0.27407    0.34419    0.56664    1.000
    Si1494   Si       0.26912    0.46020    0.54895    1.000
    N1495    N        0.27865    0.50154    0.53284    1.000
    N1496    N        0.27873    0.45528    0.59224    1.000
    N1497    N        0.23758    0.34978    0.63819    1.000
    Si1498   Si       0.27292    0.37276    0.63905    1.000
    Si1499   Si       0.24475    0.30901    0.62499    1.000
    N1500    N        0.27276    0.28897    0.65137    1.000
    N1501    N        0.24853    0.33181    0.71360    1.000
    Si1502   Si       0.28093    0.31761    0.68616    1.000
    Si1503   Si       0.24322    0.43746    0.65590    1.000
    Si1504   Si       0.27899    0.48939    0.61839    1.000
    Si1505   Si       0.27252    0.49627    0.69265    1.000
    N1506    N        0.28046    0.38846    0.72655    1.000
    N1507    N        0.27518    0.40912    0.65902    1.000
    N1508    N        0.26339    0.47703    0.65646    1.000
    N1509    N        0.23533    0.49978    0.71327    1.000
    Si1510   Si       0.24302    0.31075    0.79133    1.000
    N1511    N        0.25976    0.27626    0.80689    1.000
    N1512    N        0.27453    0.33857    0.77691    1.000
    Si1513   Si       0.25402    0.36240    0.74577    1.000
    Si1514   Si       0.25848    0.25549    0.84468    1.000
    N1515    N        0.22379    0.27313    0.86681    1.000
    N1516    N        0.23311    0.44143    0.75557    1.000
    Si1517   Si       0.27166    0.46172    0.75811    1.000
    N1518    N        0.27395    0.49899    0.78171    1.000
    N1519    N        0.23011    0.49394    0.85286    1.000
    Si1520   Si       0.22503    0.41720    0.86787    1.000
    N1521    N        0.24021    0.30720    0.99314    1.000
    Si1522   Si       0.23410    0.35710    0.91286    1.000
    Si1523   Si       0.24766    0.29603    0.95091    1.000
    N1524    N        0.27390    0.34717    0.89472    1.000
    N1525    N        0.23910    0.37815    0.94920    1.000
    N1526    N        0.26955    0.41682    0.87207    1.000
    Si1527   Si       0.24761    0.46319    0.97493    1.000
    N1528    N        0.24394    0.42461    0.99168    1.000
    Si1529   Si       0.22832    0.48526    0.90271    1.000
    N1530    N        0.26929    0.47429    0.90461    1.000
    N1531    N        0.28000    0.49128    0.96841    1.000
    Si1532   Si       0.27472    0.39676    0.97116    1.000
    Si1533   Si       0.26783    0.57972    0.09932    1.000
    N1534    N        0.26331    0.53512    0.10004    1.000
    Si1535   Si       0.24786    0.61117    0.03811    1.000
    N1536    N        0.25120    0.58320    0.00555    1.000
    N1537    N        0.23502    0.58615    0.07220    1.000
    Si1538   Si       0.23051    0.52088    0.01680    1.000
    N1539    N        0.27173    0.52052    0.03105    1.000
    N1540    N        0.23653    0.68748    0.07041    1.000
    Si1541   Si       0.27008    0.68368    0.04502    1.000
    N1542    N        0.25714    0.70205    0.00827    1.000
    Si1543   Si       0.23427    0.70731    0.10848    1.000
    N1544    N        0.26329    0.74012    0.11613    1.000
    N1545    N        0.27807    0.64084    0.04705    1.000
    N1546    N        0.27096    0.59302    0.14067    1.000
    N1547    N        0.25801    0.59793    0.20651    1.000
    Si1548   Si       0.23796    0.58752    0.17169    1.000
    Si1549   Si       0.24220    0.51780    0.20207    1.000
    N1550    N        0.23586    0.54353    0.16687    1.000
    N1551    N        0.27580    0.53463    0.22579    1.000
    Si1552   Si       0.22755    0.52792    0.12566    1.000
    Si1553   Si       0.24307    0.63095    0.22736    1.000
    N1554    N        0.23527    0.67634    0.13798    1.000
    N1555    N        0.26197    0.70907    0.19032    1.000
    Si1556   Si       0.26499    0.74946    0.20581    1.000
    Si1557   Si       0.22482    0.68877    0.17772    1.000
    Si1558   Si       0.24157    0.54194    0.33460    1.000
    N1559    N        0.26836    0.61545    0.30400    1.000
    Si1560   Si       0.23028    0.59815    0.29631    1.000
    N1561    N        0.23047    0.55468    0.29584    1.000
    N1562    N        0.27946    0.56271    0.34667    1.000
    N1563    N        0.27548    0.64945    0.24889    1.000
    Si1564   Si       0.26913    0.72659    0.35627    1.000
    N1565    N        0.27703    0.68434    0.36567    1.000
    N1566    N        0.22706    0.72634    0.36148    1.000
    N1567    N        0.28031    0.73801    0.31666    1.000
    Si1568   Si       0.25214    0.54297    0.44017    1.000
    Si1569   Si       0.27433    0.60232    0.41290    1.000
    N1570    N        0.24022    0.51942    0.40561    1.000
    Si1571   Si       0.23952    0.61853    0.46964    1.000
    N1572    N        0.25209    0.61528    0.37610    1.000
    N1573    N        0.24515    0.58485    0.44082    1.000
    N1574    N        0.22353    0.51894    0.46903    1.000
    Si1575   Si       0.25431    0.65771    0.39002    1.000
    N1576    N        0.27653    0.64442    0.42611    1.000
    N1577    N        0.27325    0.64120    0.49169    1.000
    Si1578   Si       0.24841    0.72165    0.48930    1.000
    Si1579   Si       0.26468    0.53248    0.56309    1.000
    N1580    N        0.26266    0.61640    0.55469    1.000
    N1581    N        0.24125    0.55423    0.53542    1.000
    Si1582   Si       0.25296    0.52713    0.50140    1.000
    Si1583   Si       0.22964    0.59462    0.54073    1.000
    N1584    N        0.24679    0.51337    0.59840    1.000
    N1585    N        0.24079    0.59051    0.61375    1.000
    Si1586   Si       0.27744    0.59606    0.59148    1.000
    N1587    N        0.25720    0.74058    0.58710    1.000
    Si1588   Si       0.25244    0.69891    0.57356    1.000
    N1589    N        0.23489    0.71308    0.52843    1.000
    N1590    N        0.26972    0.68780    0.61396    1.000
    N1591    N        0.25807    0.58650    0.68253    1.000
    Si1592   Si       0.23449    0.61711    0.70142    1.000
    Si1593   Si       0.22730    0.57964    0.65267    1.000
    N1594    N        0.23947    0.61683    0.74405    1.000
    Si1595   Si       0.27954    0.67431    0.69532    1.000
    Si1596   Si       0.27442    0.72769    0.63188    1.000
    N1597    N        0.24134    0.65901    0.68979    1.000
    Si1598   Si       0.25781    0.74089    0.69235    1.000
    N1599    N        0.24081    0.75255    0.65376    1.000
    N1600    N        0.22616    0.72105    0.71009    1.000
    N1601    N        0.25543    0.56899    0.80210    1.000
    Si1602   Si       0.25538    0.53643    0.77452    1.000
    Si1603   Si       0.23134    0.60043    0.78459    1.000
    N1604    N        0.25597    0.56458    0.86650    1.000
    Si1605   Si       0.22406    0.53693    0.85980    1.000
    N1606    N        0.23990    0.63914    0.80154    1.000
    Si1607   Si       0.26712    0.64438    0.76532    1.000
    Si1608   Si       0.26581    0.69763    0.82771    1.000
    N1609    N        0.26309    0.67193    0.86272    1.000
    N1610    N        0.22601    0.70268    0.81271    1.000
    N1611    N        0.28289    0.73691    0.82985    1.000
    N1612    N        0.25293    0.57735    0.94199    1.000
    Si1613   Si       0.26107    0.55296    0.90818    1.000
    N1614    N        0.22436    0.52713    0.90393    1.000
    Si1615   Si       0.22167    0.57634    0.97256    1.000
    N1616    N        0.27882    0.69174    0.94203    1.000
    Si1617   Si       0.23641    0.70840    0.93828    1.000
    Si1618   Si       0.27621    0.64631    0.93839    1.000
    Si1619   Si       0.22554    0.66806    0.88439    1.000
    N1620    N        0.24329    0.75034    0.94771    1.000
    N1621    N        0.23519    0.64976    0.92195    1.000
    Si1622   Si       0.26256    0.81757    0.06709    1.000
    N1623    N        0.26238    0.84649    0.03649    1.000
    N1624    N        0.26451    0.84147    0.10392    1.000
    Si1625   Si       0.22988    0.87014    0.10295    1.000
    N1626    N        0.22993    0.78924    0.07069    1.000
    Si1627   Si       0.23080    0.76841    0.10890    1.000
    Si1628   Si       0.24630    0.85224    0.99640    1.000
    N1629    N        0.23446    0.99821    0.01530    1.000
    N1630    N        0.25950    0.95238    0.04521    1.000
    N1631    N        0.24152    0.91165    0.09225    1.000
    Si1632   Si       0.25665    0.98884    0.11100    1.000
    Si1633   Si       0.26503    0.99476    0.04511    1.000
    Si1634   Si       0.27762    0.92967    0.07801    1.000
    Si1635   Si       0.22566    0.95537    0.02000    1.000
    N1636    N        0.22590    0.77079    0.21007    1.000
    N1637    N        0.27506    0.81817    0.23204    1.000
    N1638    N        0.23671    0.84128    0.18093    1.000
    Si1639   Si       0.27585    0.83954    0.19537    1.000
    Si1640   Si       0.22533    0.93883    0.21136    1.000
    N1641    N        0.24315    0.97831    0.20565    1.000
    Si1642   Si       0.28128    0.99356    0.18541    1.000
    N1643    N        0.23513    0.91315    0.17886    1.000
    Si1644   Si       0.27738    0.91244    0.17132    1.000
    N1645    N        0.23505    0.78120    0.28307    1.000
    Si1646   Si       0.27544    0.76750    0.28481    1.000
    Si1647   Si       0.23001    0.82645    0.36807    1.000
    N1648    N        0.27528    0.86884    0.27709    1.000
    Si1649   Si       0.25743    0.87525    0.31799    1.000
    N1650    N        0.22526    0.84998    0.33116    1.000
    Si1651   Si       0.23800    0.79934    0.24285    1.000
    Si1652   Si       0.27012    0.94802    0.32998    1.000
    N1653    N        0.24180    0.91618    0.31756    1.000
    N1654    N        0.25597    0.98525    0.31517    1.000
    N1655    N        0.23707    0.91885    0.24782    1.000
    Si1656   Si       0.27526    0.89926    0.24724    1.000
    N1657    N        0.27125    0.81893    0.37852    1.000
    N1658    N        0.24013    0.77001    0.41491    1.000
    N1659    N        0.26867    0.85898    0.45415    1.000
    Si1660   Si       0.28001    0.78432    0.40327    1.000
    N1661    N        0.25031    0.76357    0.47992    1.000
    Si1662   Si       0.24171    0.89419    0.45169    1.000
    N1663    N        0.25783    0.90793    0.49212    1.000
    N1664    N        0.27020    0.92273    0.43348    1.000
    N1665    N        0.26446    0.99273    0.41795    1.000
    Si1666   Si       0.25665    0.95135    0.40508    1.000
    Si1667   Si       0.24175    0.78178    0.57455    1.000
    N1668    N        0.26612    0.86877    0.60255    1.000
    N1669    N        0.26918    0.81596    0.50561    1.000
    N1670    N        0.22960    0.80070    0.61095    1.000
    Si1671   Si       0.26123    0.85947    0.49884    1.000
    Si1672   Si       0.22674    0.80109    0.50175    1.000
    Si1673   Si       0.26976    0.99391    0.50190    1.000
    Si1674   Si       0.26973    0.89194    0.56758    1.000
    N1675    N        0.23222    0.91210    0.55711    1.000
    N1676    N        0.24977    0.97582    0.60615    1.000
    N1677    N        0.26024    0.96639    0.53444    1.000
    Si1678   Si       0.23528    0.93488    0.51926    1.000
    Si1679   Si       0.27669    0.96705    0.57393    1.000
    N1680    N        0.24617    0.83358    0.71532    1.000
    Si1681   Si       0.24747    0.83702    0.62728    1.000
    Si1682   Si       0.27973    0.85717    0.72281    1.000
    N1683    N        0.22375    0.86017    0.65691    1.000
    Si1684   Si       0.23167    0.96163    0.64181    1.000
    Si1685   Si       0.25356    0.92992    0.70667    1.000
    N1686    N        0.26288    0.95317    0.67094    1.000
    N1687    N        0.26540    0.94895    0.74485    1.000
    Si1688   Si       0.25188    0.86693    0.80121    1.000
    Si1689   Si       0.24101    0.81246    0.75174    1.000
    Si1690   Si       0.27405    0.76546    0.79610    1.000
    N1691    N        0.27930    0.86628    0.76601    1.000
    N1692    N        0.27917    0.79833    0.76342    1.000
    N1693    N        0.22735    0.77060    0.80274    1.000
    N1694    N        0.22571    0.83720    0.78561    1.000
    Si1695   Si       0.23219    0.97146    0.76061    1.000
    N1696    N        0.25073    0.91009    0.80082    1.000
    Si1697   Si       0.24136    0.93788    0.83183    1.000
    N1698    N        0.24080    0.99737    0.79813    1.000
    Si1699   Si       0.27652    0.99898    0.82058    1.000
    N1700    N        0.27533    0.96258    0.84323    1.000
    Si1701   Si       0.27658    0.91062    0.76626    1.000
    N1702    N        0.27065    0.79685    0.86994    1.000
    Si1703   Si       0.23210    0.81898    0.87631    1.000
    N1704    N        0.25017    0.80992    0.98234    1.000
    N1705    N        0.25474    0.85446    0.88624    1.000
    Si1706   Si       0.26331    0.77588    0.91675    1.000
    N1707    N        0.22385    0.79748    0.91091    1.000
    Si1708   Si       0.22044    0.77690    0.97462    1.000
    N1709    N        0.27239    0.88609    0.98817    1.000
    N1710    N        0.22776    0.93835    0.98056    1.000
    Si1711   Si       0.24415    0.89205    0.90285    1.000
    N1712    N        0.23007    0.91304    0.86642    1.000
    Si1713   Si       0.26490    0.92278    0.96779    1.000
    N1714    N        0.27487    0.91594    0.92451    1.000
    N1715    N        0.31021    0.06148    0.08085    1.000
    N1716    N        0.32146    0.12461    0.03404    1.000
    Si1717   Si       0.32706    0.02697    0.05925    1.000
    Si1718   Si       0.33475    0.09087    0.05958    1.000
    Si1719   Si       0.30322    0.16100    0.05456    1.000
    Si1720   Si       0.30036    0.23304    0.02257    1.000
    N1721    N        0.29078    0.19114    0.02803    1.000
    N1722    N        0.33179    0.25344    0.04770    1.000
    Si1723   Si       0.33496    0.25649    0.09054    1.000
    Si1724   Si       0.33111    0.18367    0.11921    1.000
    N1725    N        0.33834    0.16681    0.07945    1.000
    Si1726   Si       0.31238    0.06916    0.19770    1.000
    N1727    N        0.30325    0.02395    0.20520    1.000
    N1728    N        0.30514    0.09609    0.23142    1.000
    Si1729   Si       0.33088    0.01066    0.23674    1.000
    N1730    N        0.28469    0.24874    0.18912    1.000
    N1731    N        0.33791    0.15841    0.15397    1.000
    N1732    N        0.33100    0.20417    0.20383    1.000
    N1733    N        0.28386    0.15078    0.20000    1.000
    Si1734   Si       0.28805    0.13482    0.24019    1.000
    Si1735   Si       0.30805    0.17864    0.17786    1.000
    Si1736   Si       0.31346    0.24258    0.21924    1.000
    N1737    N        0.29084    0.19565    0.13945    1.000
    N1738    N        0.30880    0.08751    0.29736    1.000
    Si1739   Si       0.31550    0.06997    0.33804    1.000
    N1740    N        0.31256    0.02810    0.32470    1.000
    Si1741   Si       0.33395    0.08573    0.26338    1.000
    Si1742   Si       0.28227    0.01231    0.29608    1.000
    N1743    N        0.31156    0.16289    0.25987    1.000
    Si1744   Si       0.29829    0.19720    0.27903    1.000
    N1745    N        0.29561    0.23401    0.25822    1.000
    N1746    N        0.33365    0.19950    0.30594    1.000
    N1747    N        0.29392    0.07348    0.37531    1.000
    Si1748   Si       0.29387    0.07214    0.42347    1.000
    N1749    N        0.30963    0.03748    0.44415    1.000
    N1750    N        0.33202    0.10566    0.42375    1.000
    Si1751   Si       0.33166    0.03668    0.48489    1.000
    N1752    N        0.32913    0.08351    0.49070    1.000
    Si1753   Si       0.28348    0.19341    0.40773    1.000
    N1754    N        0.31570    0.21340    0.38549    1.000
    N1755    N        0.30955    0.17788    0.43939    1.000
    N1756    N        0.32772    0.23308    0.48730    1.000
    Si1757   Si       0.33976    0.20183    0.45958    1.000
    Si1758   Si       0.30049    0.13604    0.43234    1.000
    N1759    N        0.29906    0.08138    0.54831    1.000
    N1760    N        0.29665    0.02622    0.51027    1.000
    N1761    N        0.29689    0.00646    0.57546    1.000
    Si1762   Si       0.28764    0.04065    0.54998    1.000
    Si1763   Si       0.28775    0.09981    0.49647    1.000
    N1764    N        0.31481    0.14117    0.57915    1.000
    Si1765   Si       0.32327    0.22185    0.58489    1.000
    Si1766   Si       0.32838    0.15492    0.53946    1.000
    N1767    N        0.29448    0.14018    0.51302    1.000
    N1768    N        0.28427    0.24290    0.58147    1.000
    N1769    N        0.33504    0.19588    0.55060    1.000
    N1770    N        0.33115    0.19634    0.61802    1.000
    Si1771   Si       0.34109    0.15290    0.61084    1.000
    Si1772   Si       0.32421    0.08103    0.70424    1.000
    Si1773   Si       0.29308    0.11900    0.65011    1.000
    N1774    N        0.32983    0.12247    0.71364    1.000
    N1775    N        0.28906    0.08457    0.67688    1.000
    N1776    N        0.30500    0.01504    0.66886    1.000
    N1777    N        0.33705    0.12308    0.64166    1.000
    N1778    N        0.33706    0.05351    0.73589    1.000
    N1779    N        0.28996    0.17587    0.73372    1.000
    Si1780   Si       0.29594    0.18366    0.69025    1.000
    Si1781   Si       0.30081    0.13375    0.74510    1.000
    N1782    N        0.34086    0.24759    0.66368    1.000
    Si1783   Si       0.31366    0.10083    0.81038    1.000
    Si1784   Si       0.32350    0.04981    0.84460    1.000
    N1785    N        0.32682    0.09338    0.85255    1.000
    N1786    N        0.33151    0.05975    0.80230    1.000
    N1787    N        0.32717    0.12803    0.77920    1.000
    Si1788   Si       0.33590    0.02710    0.77174    1.000
    N1789    N        0.28229    0.03592    0.84283    1.000
    N1790    N        0.29337    0.21507    0.78901    1.000
    N1791    N        0.29448    0.16225    0.84152    1.000
    Si1792   Si       0.33549    0.22365    0.78155    1.000
    Si1793   Si       0.33777    0.17494    0.83954    1.000
    N1794    N        0.29844    0.25594    0.86108    1.000
    Si1795   Si       0.29733    0.05248    0.95537    1.000
    N1796    N        0.29683    0.08320    0.98530    1.000
    N1797    N        0.33813    0.05207    0.94225    1.000
    Si1798   Si       0.32036    0.11888    0.99031    1.000
    N1799    N        0.29207    0.24112    0.97904    1.000
    N1800    N        0.31293    0.13797    0.90357    1.000
    Si1801   Si       0.31804    0.16984    0.93186    1.000
    N1802    N        0.30379    0.15470    0.97015    1.000
    Si1803   Si       0.31735    0.23103    0.89179    1.000
    N1804    N        0.29461    0.20438    0.91911    1.000
    N1805    N        0.30239    0.33926    0.10770    1.000
    N1806    N        0.30846    0.31182    0.01410    1.000
    N1807    N        0.28678    0.37578    0.00923    1.000
    Si1808   Si       0.33797    0.36351    0.10331    1.000
    N1809    N        0.30545    0.26745    0.12118    1.000
    Si1810   Si       0.34557    0.28781    0.02332    1.000
    Si1811   Si       0.30703    0.39657    0.04350    1.000
    N1812    N        0.29354    0.46628    0.06526    1.000
    Si1813   Si       0.32827    0.46465    0.03603    1.000
    N1814    N        0.32639    0.42501    0.01697    1.000
    N1815    N        0.33441    0.49642    0.00735    1.000
    N1816    N        0.33019    0.28251    0.22717    1.000
    N1817    N        0.30851    0.34526    0.21870    1.000
    Si1818   Si       0.30256    0.30850    0.13830    1.000
    N1819    N        0.33825    0.31769    0.15957    1.000
    Si1820   Si       0.33823    0.31761    0.20173    1.000
    Si1821   Si       0.32383    0.37757    0.24642    1.000
    N1822    N        0.33154    0.39493    0.13238    1.000
    N1823    N        0.31575    0.43082    0.18658    1.000
    Si1824   Si       0.28619    0.45254    0.20797    1.000
    Si1825   Si       0.29690    0.41152    0.15303    1.000
    N1826    N        0.30762    0.47627    0.23748    1.000
    Si1827   Si       0.32129    0.31036    0.26370    1.000
    N1828    N        0.33204    0.34944    0.27704    1.000
    N1829    N        0.30723    0.41109    0.27047    1.000
    N1830    N        0.30198    0.46392    0.31467    1.000
    Si1831   Si       0.33031    0.43504    0.29573    1.000
    Si1832   Si       0.31811    0.50286    0.32870    1.000
    Si1833   Si       0.28718    0.50896    0.25857    1.000
    Si1834   Si       0.34364    0.41142    0.36554    1.000
    Si1835   Si       0.31236    0.34163    0.46846    1.000
    N1836    N        0.33215    0.28456    0.41176    1.000
    Si1837   Si       0.28884    0.29066    0.42282    1.000
    Si1838   Si       0.29868    0.26530    0.49111    1.000
    N1839    N        0.31995    0.30232    0.49068    1.000
    Si1840   Si       0.31808    0.25801    0.37626    1.000
    N1841    N        0.30374    0.40042    0.37761    1.000
    Si1842   Si       0.32360    0.47881    0.39960    1.000
    N1843    N        0.30033    0.50397    0.37105    1.000
    N1844    N        0.31600    0.46532    0.48587    1.000
    N1845    N        0.29488    0.45225    0.42037    1.000
    Si1846   Si       0.30305    0.43510    0.45905    1.000
    N1847    N        0.33588    0.50840    0.42980    1.000
    N1848    N        0.31174    0.31402    0.56099    1.000
    N1849    N        0.31447    0.36187    0.50804    1.000
    N1850    N        0.28325    0.37525    0.59651    1.000
    Si1851   Si       0.33447    0.32607    0.52585    1.000
    Si1852   Si       0.28124    0.28250    0.56394    1.000
    N1853    N        0.29276    0.42171    0.54043    1.000
    Si1854   Si       0.29609    0.41517    0.58784    1.000
    Si1855   Si       0.31928    0.49566    0.52019    1.000
    Si1856   Si       0.33674    0.42940    0.54454    1.000
    N1857    N        0.33945    0.41187    0.58309    1.000
    Si1858   Si       0.28221    0.38955    0.51438    1.000
    N1859    N        0.34008    0.47234    0.55053    1.000
    Si1860   Si       0.30025    0.25998    0.67190    1.000
    N1861    N        0.30086    0.35058    0.66263    1.000
    N1862    N        0.30668    0.28779    0.70523    1.000
    Si1863   Si       0.34296    0.34075    0.66187    1.000
    Si1864   Si       0.33089    0.45168    0.71482    1.000
    N1865    N        0.33678    0.41901    0.68828    1.000
    Si1866   Si       0.30557    0.38841    0.68887    1.000
    N1867    N        0.29268    0.46716    0.72099    1.000
    Si1868   Si       0.31146    0.34630    0.79922    1.000
    N1869    N        0.32689    0.31432    0.82262    1.000
    Si1870   Si       0.33010    0.27340    0.83675    1.000
    N1871    N        0.33911    0.37160    0.77191    1.000
    N1872    N        0.30678    0.37519    0.83008    1.000
    Si1873   Si       0.28847    0.37861    0.86915    1.000
    N1874    N        0.30257    0.48323    0.84645    1.000
    Si1875   Si       0.30705    0.48029    0.80285    1.000
    N1876    N        0.29897    0.44005    0.78726    1.000
    Si1877   Si       0.33387    0.41328    0.78215    1.000
    Si1878   Si       0.31695    0.26993    0.95806    1.000
    Si1879   Si       0.30837    0.33878    0.92127    1.000
    N1880    N        0.30607    0.37130    0.94990    1.000
    N1881    N        0.29020    0.30567    0.94708    1.000
    Si1882   Si       0.31284    0.34750    0.98935    1.000
    N1883    N        0.33252    0.25921    0.92078    1.000
    N1884    N        0.29366    0.43199    0.95306    1.000
    Si1885   Si       0.30319    0.47154    0.93627    1.000
    N1886    N        0.32689    0.44753    0.90387    1.000
    N1887    N        0.32626    0.38571    0.89009    1.000
    Si1888   Si       0.29299    0.45300    0.87525    1.000
    Si1889   Si       0.32755    0.40956    0.92805    1.000
    N1890    N        0.30194    0.58964    0.07577    1.000
    N1891    N        0.32692    0.51964    0.08562    1.000
    Si1892   Si       0.33337    0.56173    0.08936    1.000
    Si1893   Si       0.31703    0.62950    0.06155    1.000
    Si1894   Si       0.29768    0.51834    0.99772    1.000
    N1895    N        0.33863    0.62628    0.02429    1.000
    Si1896   Si       0.28644    0.50932    0.07115    1.000
    N1897    N        0.31981    0.68918    0.00196    1.000
    N1898    N        0.30138    0.70926    0.06547    1.000
    Si1899   Si       0.30352    0.73106    0.10296    1.000
    Si1900   Si       0.33442    0.70840    0.03684    1.000
    N1901    N        0.29547    0.75445    0.99581    1.000
    N1902    N        0.31934    0.57680    0.19218    1.000
    Si1903   Si       0.31265    0.59832    0.15475    1.000
    Si1904   Si       0.28906    0.57406    0.22419    1.000
    Si1905   Si       0.34147    0.66546    0.13033    1.000
    N1906    N        0.31723    0.70391    0.13324    1.000
    Si1907   Si       0.30269    0.70979    0.17261    1.000
    N1908    N        0.33388    0.70079    0.20156    1.000
    N1909    N        0.31861    0.64197    0.15715    1.000
    Si1910   Si       0.32425    0.73051    0.23539    1.000
    N1911    N        0.31016    0.52628    0.29261    1.000
    N1912    N        0.31633    0.62592    0.35957    1.000
    Si1913   Si       0.30192    0.62555    0.27512    1.000
    N1914    N        0.30958    0.58601    0.25950    1.000
    Si1915   Si       0.33497    0.55451    0.27219    1.000
    Si1916   Si       0.27929    0.60562    0.34316    1.000
    Si1917   Si       0.32028    0.72386    0.30888    1.000
    Si1918   Si       0.31655    0.66896    0.36252    1.000
    N1919    N        0.32368    0.70706    0.26914    1.000
    N1920    N        0.33317    0.68643    0.32615    1.000
    N1921    N        0.28535    0.75054    0.24527    1.000
    Si1922   Si       0.30604    0.54806    0.37722    1.000
    Si1923   Si       0.32098    0.54494    0.44848    1.000
    N1924    N        0.29754    0.56543    0.41416    1.000
    N1925    N        0.28350    0.53622    0.47028    1.000
    N1926    N        0.29537    0.74686    0.38384    1.000
    Si1927   Si       0.32068    0.72567    0.47707    1.000
    N1928    N        0.33633    0.65731    0.45767    1.000
    N1929    N        0.33886    0.73853    0.43936    1.000
    Si1930   Si       0.29421    0.66333    0.46055    1.000
    N1931    N        0.28436    0.70293    0.47319    1.000
    Si1932   Si       0.32988    0.72616    0.40068    1.000
    N1933    N        0.33967    0.68395    0.39547    1.000
    Si1934   Si       0.33177    0.53915    0.59699    1.000
    N1935    N        0.29621    0.55722    0.57889    1.000
    N1936    N        0.30376    0.62182    0.61075    1.000
    N1937    N        0.32827    0.64378    0.53243    1.000
    N1938    N        0.32691    0.73862    0.55389    1.000
    Si1939   Si       0.33295    0.69554    0.54386    1.000
    Si1940   Si       0.28651    0.64517    0.53271    1.000
    N1941    N        0.28830    0.68472    0.55301    1.000
    Si1942   Si       0.33862    0.62642    0.68615    1.000
    N1943    N        0.32423    0.59483    0.71145    1.000
    Si1944   Si       0.29111    0.56657    0.70549    1.000
    N1945    N        0.29886    0.52886    0.68462    1.000
    Si1946   Si       0.33417    0.51447    0.66510    1.000
    N1947    N        0.31676    0.50971    0.62439    1.000
    N1948    N        0.27634    0.55570    0.74299    1.000
    N1949    N        0.28410    0.67526    0.73653    1.000
    N1950    N        0.31030    0.75109    0.62072    1.000
    N1951    N        0.28458    0.71119    0.67292    1.000
    N1952    N        0.30535    0.64882    0.67181    1.000
    Si1953   Si       0.29909    0.66026    0.62862    1.000
    N1954    N        0.31824    0.54769    0.83407    1.000
    N1955    N        0.30173    0.61953    0.77394    1.000
    N1956    N        0.29630    0.61659    0.84292    1.000
    Si1957   Si       0.33433    0.60109    0.75382    1.000
    Si1958   Si       0.31795    0.51832    0.86688    1.000
    Si1959   Si       0.28392    0.57518    0.83564    1.000
    N1960    N        0.29122    0.73729    0.76395    1.000
    Si1961   Si       0.31310    0.63865    0.80999    1.000
    Si1962   Si       0.30832    0.69870    0.76478    1.000
    N1963    N        0.29416    0.67767    0.80027    1.000
    N1964    N        0.30279    0.53540    0.90296    1.000
    N1965    N        0.30735    0.55200    0.97357    1.000
    Si1966   Si       0.32814    0.53899    0.93782    1.000
    N1967    N        0.29050    0.62785    0.97565    1.000
    N1968    N        0.30348    0.62696    0.91084    1.000
    Si1969   Si       0.28078    0.58484    0.97252    1.000
    Si1970   Si       0.29214    0.71427    0.97818    1.000
    N1971    N        0.28457    0.74218    0.89806    1.000
    N1972    N        0.33240    0.72538    0.94527    1.000
    N1973    N        0.32580    0.68117    0.88189    1.000
    Si1974   Si       0.29755    0.64777    0.87241    1.000
    Si1975   Si       0.30809    0.70920    0.91313    1.000
    Si1976   Si       0.32675    0.64958    0.98936    1.000
    N1977    N        0.30088    0.79900    0.05934    1.000
    Si1978   Si       0.31614    0.77655    0.02611    1.000
    Si1979   Si       0.33449    0.80398    0.08711    1.000
    N1980    N        0.32453    0.76838    0.11337    1.000
    Si1981   Si       0.29419    0.87473    0.02523    1.000
    N1982    N        0.32090    0.80976    0.99799    1.000
    N1983    N        0.33293    0.87841    0.00652    1.000
    N1984    N        0.33865    0.83889    0.11364    1.000
    N1985    N        0.30238    0.90169    0.05750    1.000
    N1986    N        0.29074    0.96219    0.10507    1.000
    Si1987   Si       0.33565    0.96621    0.10966    1.000
    N1988    N        0.30671    0.00151    0.03222    1.000
    N1989    N        0.30118    0.82278    0.16441    1.000
    Si1990   Si       0.32158    0.78361    0.15528    1.000
    Si1991   Si       0.29947    0.85093    0.12801    1.000
    N1992    N        0.30174    0.75501    0.18018    1.000
    N1993    N        0.29689    0.89078    0.13949    1.000
    N1994    N        0.28727    0.88297    0.20514    1.000
    N1995    N        0.29775    0.95316    0.18133    1.000
    Si1996   Si       0.32937    0.88947    0.22088    1.000
    N1997    N        0.29993    0.80165    0.29115    1.000
    Si1998   Si       0.29895    0.83529    0.26240    1.000
    N1999    N        0.29232    0.87445    0.34118    1.000
    N2000    N        0.33502    0.85344    0.24429    1.000
    N2001    N        0.33562    0.81802    0.34905    1.000
    Si2002   Si       0.30612    0.84391    0.36645    1.000
    Si2003   Si       0.33905    0.79719    0.31162    1.000
    N2004    N        0.30640    0.93143    0.31394    1.000
    N2005    N        0.31021    0.98849    0.26871    1.000
    Si2006   Si       0.32572    0.94821    0.27845    1.000
    Si2007   Si       0.32765    0.89740    0.33032    1.000
    N2008    N        0.31142    0.92025    0.24766    1.000
    N2009    N        0.28289    0.94908    0.37158    1.000
    N2010    N        0.33026    0.84901    0.47324    1.000
    N2011    N        0.30062    0.79759    0.43784    1.000
    Si2012   Si       0.30479    0.84269    0.44148    1.000
    N2013    N        0.32552    0.85417    0.40382    1.000
    Si2014   Si       0.28521    0.78658    0.47645    1.000
    Si2015   Si       0.30552    0.99378    0.43806    1.000
    N2016    N        0.33368    0.92336    0.47605    1.000
    N2017    N        0.29095    0.97185    0.47311    1.000
    Si2018   Si       0.29071    0.92910    0.47194    1.000
    Si2019   Si       0.32799    0.94949    0.37628    1.000
    N2020    N        0.33061    0.96304    0.41873    1.000
    Si2021   Si       0.29487    0.82488    0.53962    1.000
    N2022    N        0.33558    0.85164    0.60021    1.000
    Si2023   Si       0.29837    0.75649    0.58049    1.000
    N2024    N        0.28404    0.86568    0.53644    1.000
    N2025    N        0.28186    0.79477    0.56686    1.000
    N2026    N        0.31566    0.76418    0.49574    1.000
    N2027    N        0.32296    0.96701    0.62530    1.000
    Si2028   Si       0.33457    0.99800    0.59605    1.000
    Si2029   Si       0.32377    0.92670    0.61208    1.000
    N2030    N        0.29542    0.92695    0.57913    1.000
    Si2031   Si       0.30427    0.77145    0.73780    1.000
    Si2032   Si       0.30368    0.86215    0.62790    1.000
    N2033    N        0.31495    0.83234    0.70947    1.000
    Si2034   Si       0.30628    0.80346    0.67610    1.000
    N2035    N        0.28610    0.82627    0.64734    1.000
    N2036    N        0.28594    0.77218    0.70018    1.000
    N2037    N        0.34462    0.78514    0.66616    1.000
    N2038    N        0.33151    0.94972    0.68856    1.000
    N2039    N        0.32294    0.89766    0.64460    1.000
    N2040    N        0.33773    0.98815    0.73957    1.000
    Si2041   Si       0.30217    0.97333    0.66387    1.000
    N2042    N        0.28416    0.89917    0.70776    1.000
    Si2043   Si       0.32432    0.90666    0.68910    1.000
    Si2044   Si       0.30411    0.82971    0.78951    1.000
    N2045    N        0.31093    0.78986    0.81188    1.000
    Si2046   Si       0.28785    0.83821    0.86467    1.000
    Si2047   Si       0.29805    0.76202    0.86074    1.000
    N2048    N        0.28436    0.84996    0.82400    1.000
    N2049    N        0.31649    0.92567    0.77478    1.000
    Si2050   Si       0.31537    0.95001    0.85621    1.000
    Si2051   Si       0.30651    0.96686    0.75940    1.000
    N2052    N        0.30564    0.99795    0.78939    1.000
    N2053    N        0.29921    0.79668    0.93471    1.000
    N2054    N        0.32456    0.84301    0.88451    1.000
    Si2055   Si       0.28761    0.79246    0.97653    1.000
    Si2056   Si       0.33159    0.82230    0.92178    1.000
    Si2057   Si       0.30941    0.98927    0.99136    1.000
    Si2058   Si       0.33291    0.91720    0.98521    1.000
    N2059    N        0.32883    0.96806    0.89715    1.000
    N2060    N        0.29909    0.94652    0.98321    1.000
    N2061    N        0.31840    0.91068    0.87544    1.000
    Si2062   Si       0.31541    0.92998    0.91404    1.000
    N2063    N        0.37369    0.10574    0.06986    1.000
    N2064    N        0.35691    0.05276    0.04135    1.000
    Si2065   Si       0.39431    0.07163    0.04851    1.000
    Si2066   Si       0.39789    0.12643    0.99771    1.000
    Si2067   Si       0.37590    0.14964    0.06613    1.000
    N2068    N        0.39148    0.15931    0.02764    1.000
    N2069    N        0.35033    0.22133    0.11392    1.000
    N2070    N        0.39282    0.10743    0.14104    1.000
    N2071    N        0.35026    0.08539    0.18132    1.000
    Si2072   Si       0.39181    0.07365    0.16612    1.000
    N2073    N        0.38708    0.03575    0.15007    1.000
    Si2074   Si       0.36217    0.12524    0.16849    1.000
    N2075    N        0.38156    0.14614    0.19942    1.000
    N2076    N        0.39460    0.24977    0.23538    1.000
    Si2077   Si       0.38317    0.24428    0.12660    1.000
    Si2078   Si       0.36941    0.18993    0.21131    1.000
    Si2079   Si       0.40075    0.14061    0.24152    1.000
    Si2080   Si       0.38567    0.03769    0.27000    1.000
    N2081    N        0.36399    0.11721    0.25950    1.000
    N2082    N        0.38749    0.02479    0.35061    1.000
    N2083    N        0.35269    0.08562    0.34972    1.000
    Si2084   Si       0.39273    0.11038    0.30007    1.000
    Si2085   Si       0.35137    0.00870    0.32638    1.000
    N2086    N        0.39379    0.06684    0.29893    1.000
    N2087    N        0.34882    0.04822    0.25020    1.000
    Si2088   Si       0.39581    0.06865    0.35493    1.000
    Si2089   Si       0.35886    0.22597    0.32588    1.000
    N2090    N        0.37246    0.14684    0.31214    1.000
    Si2091   Si       0.35169    0.16369    0.27821    1.000
    N2092    N        0.38051    0.21155    0.36200    1.000
    N2093    N        0.38508    0.18100    0.25190    1.000
    N2094    N        0.39364    0.22994    0.30130    1.000
    Si2095   Si       0.39334    0.15221    0.35080    1.000
    Si2096   Si       0.39023    0.01465    0.47200    1.000
    Si2097   Si       0.35712    0.09147    0.45679    1.000
    N2098    N        0.39122    0.11833    0.46349    1.000
    N2099    N        0.37701    0.05525    0.46144    1.000
    Si2100   Si       0.35805    0.10782    0.38850    1.000
    N2101    N        0.38978    0.07887    0.39923    1.000
    N2102    N        0.36837    0.21344    0.42945    1.000
    Si2103   Si       0.35507    0.19421    0.39188    1.000
    N2104    N        0.36555    0.15081    0.38431    1.000
    N2105    N        0.36298    0.18163    0.48973    1.000
    Si2106   Si       0.38361    0.14598    0.49522    1.000
    N2107    N        0.36136    0.08482    0.57193    1.000
    Si2108   Si       0.37994    0.05468    0.59693    1.000
    N2109    N        0.35890    0.04178    0.52311    1.000
    Si2110   Si       0.38636    0.12089    0.56644    1.000
    N2111    N        0.35205    0.02939    0.61777    1.000
    Si2112   Si       0.38296    0.01246    0.54105    1.000
    Si2113   Si       0.34189    0.08154    0.53456    1.000
    N2114    N        0.36537    0.13187    0.53114    1.000
    Si2115   Si       0.39079    0.25010    0.56902    1.000
    N2116    N        0.38183    0.15258    0.59782    1.000
    Si2117   Si       0.35254    0.21452    0.51721    1.000
    N2118    N        0.38038    0.24655    0.52518    1.000
    N2119    N        0.37490    0.00803    0.68763    1.000
    N2120    N        0.35689    0.06655    0.67948    1.000
    Si2121   Si       0.37339    0.09994    0.65285    1.000
    Si2122   Si       0.37326    0.04278    0.71487    1.000
    Si2123   Si       0.34708    0.02780    0.66022    1.000
    N2124    N        0.39382    0.12873    0.68010    1.000
    N2125    N        0.34296    0.18605    0.68932    1.000
    Si2126   Si       0.35348    0.20731    0.65356    1.000
    N2127    N        0.37306    0.16771    0.73824    1.000
    Si2128   Si       0.36153    0.14841    0.70192    1.000
    N2129    N        0.34856    0.23833    0.74232    1.000
    N2130    N        0.39512    0.19906    0.64748    1.000
    Si2131   Si       0.36772    0.20592    0.71980    1.000
    N2132    N        0.34840    0.01789    0.85835    1.000
    Si2133   Si       0.36240    0.15164    0.77623    1.000
    N2134    N        0.37004    0.15089    0.85939    1.000
    N2135    N        0.34979    0.18619    0.80014    1.000
    N2136    N        0.34273    0.20540    0.86755    1.000
    Si2137   Si       0.34698    0.11966    0.88020    1.000
    Si2138   Si       0.36758    0.08632    0.94461    1.000
    Si2139   Si       0.37008    0.02391    0.95410    1.000
    N2140    N        0.36075    0.11213    0.97850    1.000
    N2141    N        0.37852    0.10233    0.90571    1.000
    N2142    N        0.39760    0.05786    0.95851    1.000
    Si2143   Si       0.40052    0.18419    0.94782    1.000
    N2144    N        0.39970    0.21264    0.98024    1.000
    N2145    N        0.35919    0.18044    0.92992    1.000
    Si2146   Si       0.37466    0.18518    0.88914    1.000
    Si2147   Si       0.38928    0.25382    0.97169    1.000
    N2148    N        0.37359    0.31737    0.04153    1.000
    N2149    N        0.37466    0.34033    0.10808    1.000
    N2150    N        0.37198    0.27898    0.10318    1.000
    Si2151   Si       0.39396    0.31004    0.07949    1.000
    Si2152   Si       0.38890    0.35358    0.01915    1.000
    N2153    N        0.35297    0.36174    0.99470    1.000
    N2154    N        0.34179    0.38438    0.06671    1.000
    Si2155   Si       0.35522    0.48876    0.09778    1.000
    N2156    N        0.36134    0.45770    0.06495    1.000
    Si2157   Si       0.37381    0.41490    0.06174    1.000
    N2158    N        0.39224    0.40253    0.02239    1.000
    N2159    N        0.39539    0.41490    0.10228    1.000
    N2160    N        0.39349    0.46613    0.00215    1.000
    Si2161   Si       0.39733    0.48402    0.04269    1.000
    N2162    N        0.37828    0.31892    0.21803    1.000
    Si2163   Si       0.37818    0.30752    0.14197    1.000
    N2164    N        0.38091    0.26659    0.16342    1.000
    Si2165   Si       0.37331    0.28453    0.24432    1.000
    N2166    N        0.35415    0.46518    0.13370    1.000
    Si2167   Si       0.36576    0.42294    0.13139    1.000
    Si2168   Si       0.35072    0.48652    0.24086    1.000
    Si2169   Si       0.37521    0.48493    0.16628    1.000
    Si2170   Si       0.35687    0.42939    0.20059    1.000
    N2171    N        0.37032    0.46887    0.20659    1.000
    N2172    N        0.35922    0.40003    0.23189    1.000
    N2173    N        0.38366    0.41421    0.16951    1.000
    Si2174   Si       0.36514    0.29674    0.32511    1.000
    N2175    N        0.35905    0.33830    0.33772    1.000
    Si2176   Si       0.35853    0.36726    0.30654    1.000
    N2177    N        0.35665    0.29194    0.28340    1.000
    N2178    N        0.34373    0.26243    0.34237    1.000
    N2179    N        0.39681    0.37581    0.28762    1.000
    Si2180   Si       0.38497    0.35173    0.36994    1.000
    N2181    N        0.36158    0.50775    0.33519    1.000
    N2182    N        0.36068    0.46075    0.27890    1.000
    Si2183   Si       0.38169    0.47405    0.35601    1.000
    N2184    N        0.34960    0.40709    0.32348    1.000
    Si2185   Si       0.39902    0.39770    0.25018    1.000
    N2186    N        0.38330    0.27984    0.45808    1.000
    Si2187   Si       0.36437    0.30695    0.42940    1.000
    N2188    N        0.34827    0.34389    0.44473    1.000
    N2189    N        0.39299    0.32100    0.39906    1.000
    Si2190   Si       0.36234    0.38342    0.43262    1.000
    N2191    N        0.36934    0.38723    0.39034    1.000
    Si2192   Si       0.37610    0.42577    0.47989    1.000
    N2193    N        0.34986    0.45294    0.37599    1.000
    Si2194   Si       0.34858    0.48835    0.46556    1.000
    N2195    N        0.33967    0.41445    0.45482    1.000
    N2196    N        0.38497    0.46719    0.47539    1.000
    N2197    N        0.37748    0.31964    0.52158    1.000
    N2198    N        0.36870    0.34559    0.58077    1.000
    Si2199   Si       0.35220    0.30161    0.59232    1.000
    Si2200   Si       0.39014    0.28274    0.50026    1.000
    N2201    N        0.34991    0.25541    0.58645    1.000
    Si2202   Si       0.36766    0.38428    0.59948    1.000
    N2203    N        0.37144    0.41809    0.52278    1.000
    Si2204   Si       0.37407    0.48706    0.57601    1.000
    N2205    N        0.38040    0.48531    0.61863    1.000
    Si2206   Si       0.37206    0.27742    0.66082    1.000
    N2207    N        0.37634    0.29417    0.70046    1.000
    N2208    N        0.35384    0.30821    0.63692    1.000
    N2209    N        0.36172    0.37577    0.64176    1.000
    Si2210   Si       0.34392    0.27816    0.72400    1.000
    Si2211   Si       0.35559    0.34440    0.74375    1.000
    N2212    N        0.34268    0.35592    0.70470    1.000
    Si2213   Si       0.37458    0.40583    0.67356    1.000
    N2214    N        0.35182    0.48499    0.69420    1.000
    N2215    N        0.39853    0.40500    0.70952    1.000
    N2216    N        0.37770    0.35832    0.84890    1.000
    Si2217   Si       0.37931    0.28103    0.78318    1.000
    Si2218   Si       0.37060    0.31734    0.83930    1.000
    N2219    N        0.35136    0.30322    0.75754    1.000
    N2220    N        0.36336    0.28490    0.86699    1.000
    N2221    N        0.35268    0.25349    0.80506    1.000
    N2222    N        0.35829    0.41628    0.81894    1.000
    Si2223   Si       0.37496    0.47762    0.76815    1.000
    N2224    N        0.35010    0.44266    0.75252    1.000
    Si2225   Si       0.34533    0.38681    0.84743    1.000
    N2226    N        0.34529    0.49832    0.79212    1.000
    Si2227   Si       0.36243    0.28852    0.91173    1.000
    N2228    N        0.35295    0.27210    0.98394    1.000
    N2229    N        0.34885    0.32671    0.92162    1.000
    N2230    N        0.39756    0.27502    0.93324    1.000
    Si2231   Si       0.35742    0.40558    0.99455    1.000
    Si2232   Si       0.36033    0.47352    0.90387    1.000
    Si2233   Si       0.37097    0.49419    0.97809    1.000
    N2234    N        0.36350    0.41332    0.95137    1.000
    N2235    N        0.39913    0.45175    0.90211    1.000
    N2236    N        0.34216    0.49638    0.93801    1.000
    N2237    N        0.35924    0.50262    0.87271    1.000
    N2238    N        0.36694    0.57159    0.06156    1.000
    Si2239   Si       0.37156    0.60192    0.03174    1.000
    N2240    N        0.38644    0.58326    0.99716    1.000
    N2241    N        0.39305    0.51210    0.09195    1.000
    Si2242   Si       0.39862    0.54495    0.06658    1.000
    N2243    N        0.34454    0.64982    0.08914    1.000
    Si2244   Si       0.38162    0.66097    0.06931    1.000
    N2245    N        0.37382    0.69201    0.04007    1.000
    N2246    N        0.34582    0.74970    0.04108    1.000
    N2247    N        0.39817    0.75116    0.10363    1.000
    N2248    N        0.38907    0.57798    0.20116    1.000
    N2249    N        0.34855    0.53008    0.23884    1.000
    Si2250   Si       0.35386    0.55144    0.19914    1.000
    N2251    N        0.35697    0.52253    0.16854    1.000
    N2252    N        0.33996    0.58096    0.12558    1.000
    N2253    N        0.38881    0.65885    0.21290    1.000
    Si2254   Si       0.37445    0.68860    0.18567    1.000
    N2255    N        0.38243    0.66901    0.14636    1.000
    N2256    N        0.38500    0.61645    0.33525    1.000
    N2257    N        0.37076    0.56729    0.29231    1.000
    Si2258   Si       0.37808    0.60941    0.29357    1.000
    Si2259   Si       0.38832    0.53158    0.30758    1.000
    Si2260   Si       0.35460    0.60515    0.36495    1.000
    N2261    N        0.34678    0.56329    0.36748    1.000
    Si2262   Si       0.38137    0.53705    0.36814    1.000
    Si2263   Si       0.35094    0.67746    0.28744    1.000
    Si2264   Si       0.38012    0.75087    0.34613    1.000
    N2265    N        0.39172    0.69022    0.27564    1.000
    N2266    N        0.34688    0.75470    0.31866    1.000
    N2267    N        0.34294    0.63483    0.28476    1.000
    Si2268   Si       0.38697    0.59015    0.43082    1.000
    N2269    N        0.36885    0.62159    0.40364    1.000
    N2270    N        0.35882    0.57129    0.45913    1.000
    N2271    N        0.39656    0.67719    0.44247    1.000
    Si2272   Si       0.37277    0.67344    0.48398    1.000
    N2273    N        0.36847    0.74367    0.38560    1.000
    Si2274   Si       0.36054    0.65974    0.42192    1.000
    Si2275   Si       0.37712    0.57278    0.57131    1.000
    N2276    N        0.36513    0.58088    0.53008    1.000
    N2277    N        0.37266    0.61777    0.57946    1.000
    N2278    N        0.36289    0.52964    0.56939    1.000
    Si2279   Si       0.34792    0.62062    0.61491    1.000
    Si2280   Si       0.36679    0.62549    0.53728    1.000
    N2281    N        0.35375    0.57157    0.61373    1.000
    Si2282   Si       0.37166    0.55374    0.49835    1.000
    N2283    N        0.34609    0.51893    0.49548    1.000
    N2284    N        0.39021    0.63958    0.50520    1.000
    Si2285   Si       0.37594    0.69210    0.60453    1.000
    N2286    N        0.37428    0.69222    0.56089    1.000
    N2287    N        0.34685    0.70313    0.50328    1.000
    Si2288   Si       0.39710    0.71918    0.53556    1.000
    N2289    N        0.34238    0.66982    0.61697    1.000
    Si2290   Si       0.38158    0.57218    0.64792    1.000
    N2291    N        0.36956    0.54053    0.67393    1.000
    N2292    N        0.36889    0.61501    0.65391    1.000
    Si2293   Si       0.38661    0.50975    0.69967    1.000
    N2294    N        0.39685    0.50946    0.74212    1.000
    N2295    N        0.37924    0.73381    0.62361    1.000
    N2296    N        0.39837    0.75063    0.68931    1.000
    Si2297   Si       0.39457    0.64748    0.66242    1.000
    N2298    N        0.36936    0.65477    0.69790    1.000
    Si2299   Si       0.37723    0.66758    0.73729    1.000
    N2300    N        0.39001    0.53963    0.82339    1.000
    Si2301   Si       0.35168    0.53972    0.80599    1.000
    N2302    N        0.34912    0.56700    0.77397    1.000
    N2303    N        0.36592    0.63023    0.75894    1.000
    Si2304   Si       0.38520    0.63371    0.79776    1.000
    N2305    N        0.35346    0.64365    0.82452    1.000
    Si2306   Si       0.36656    0.74061    0.76048    1.000
    N2307    N        0.34878    0.70027    0.75253    1.000
    Si2308   Si       0.36085    0.66236    0.86346    1.000
    N2309    N        0.39303    0.69012    0.85683    1.000
    N2310    N        0.37190    0.75119    0.80131    1.000
    Si2311   Si       0.34367    0.61428    0.92053    1.000
    N2312    N        0.35065    0.57177    0.92416    1.000
    Si2313   Si       0.39258    0.61289    0.96754    1.000
    Si2314   Si       0.39199    0.55552    0.92536    1.000
    N2315    N        0.39569    0.52873    0.96020    1.000
    N2316    N        0.37179    0.62920    0.89057    1.000
    N2317    N        0.39984    0.70709    0.97540    1.000
    N2318    N        0.39186    0.73093    0.91371    1.000
    Si2319   Si       0.37519    0.73469    0.95293    1.000
    N2320    N        0.35713    0.63525    0.95821    1.000
    N2321    N        0.37074    0.80542    0.06466    1.000
    N2322    N        0.39291    0.84071    0.01100    1.000
    Si2323   Si       0.38121    0.76321    0.06036    1.000
    Si2324   Si       0.39339    0.84060    0.05430    1.000
    N2325    N        0.37641    0.88022    0.06201    1.000
    Si2326   Si       0.35108    0.83950    0.99715    1.000
    Si2327   Si       0.38870    0.90909    0.09633    1.000
    N2328    N        0.35810    0.93427    0.01536    1.000
    N2329    N        0.35418    0.93447    0.08636    1.000
    Si2330   Si       0.37850    0.96922    0.00124    1.000
    Si2331   Si       0.34594    0.90887    0.04903    1.000
    N2332    N        0.34770    0.00247    0.08871    1.000
    Si2333   Si       0.38863    0.00652    0.07613    1.000
    N2334    N        0.39412    0.97918    0.04212    1.000
    Si2335   Si       0.38462    0.76480    0.19934    1.000
    Si2336   Si       0.37293    0.84704    0.14094    1.000
    N2337    N        0.38278    0.85150    0.18388    1.000
    N2338    N        0.36229    0.77818    0.16530    1.000
    Si2339   Si       0.39485    0.77907    0.13645    1.000
    N2340    N        0.35748    0.75659    0.23507    1.000
    Si2341   Si       0.38848    0.89454    0.17549    1.000
    Si2342   Si       0.39177    0.99350    0.14800    1.000
    N2343    N        0.35453    0.91359    0.19399    1.000
    N2344    N        0.35739    0.98481    0.21522    1.000
    N2345    N        0.38091    0.88892    0.13398    1.000
    N2346    N        0.35492    0.96929    0.14833    1.000
    Si2347   Si       0.34070    0.95264    0.18832    1.000
    N2348    N        0.36802    0.81094    0.28326    1.000
    Si2349   Si       0.36916    0.85368    0.27404    1.000
    Si2350   Si       0.38492    0.78022    0.25892    1.000
    N2351    N        0.35389    0.87309    0.30860    1.000
    N2352    N        0.39672    0.78988    0.34601    1.000
    N2353    N        0.36703    0.93737    0.28144    1.000
    N2354    N        0.35348    0.97316    0.34919    1.000
    Si2355   Si       0.39642    0.98118    0.35401    1.000
    N2356    N        0.37710    0.00131    0.28935    1.000
    Si2357   Si       0.37344    0.81720    0.37114    1.000
    N2358    N        0.39268    0.85519    0.37574    1.000
    N2359    N        0.38941    0.81444    0.47878    1.000
    N2360    N        0.37872    0.80531    0.41364    1.000
    Si2361   Si       0.39265    0.83624    0.44048    1.000
    Si2362   Si       0.36186    0.87958    0.39738    1.000
    N2363    N        0.38083    0.88147    0.44017    1.000
    Si2364   Si       0.37448    0.76269    0.42461    1.000
    N2365    N        0.34412    0.90952    0.37052    1.000
    Si2366   Si       0.35488    0.95489    0.45587    1.000
    N2367    N        0.35209    0.99642    0.47111    1.000
    Si2368   Si       0.35413    0.88674    0.47294    1.000
    N2369    N        0.36436    0.78917    0.59658    1.000
    Si2370   Si       0.36064    0.82555    0.57480    1.000
    N2371    N        0.39056    0.86080    0.57454    1.000
    Si2372   Si       0.35994    0.83422    0.50223    1.000
    N2373    N        0.38384    0.75859    0.51949    1.000
    N2374    N        0.37462    0.87499    0.50981    1.000
    Si2375   Si       0.36755    0.87974    0.60954    1.000
    Si2376   Si       0.40361    0.77008    0.59109    1.000
    N2377    N        0.33885    0.81541    0.53606    1.000
    Si2378   Si       0.34250    0.77062    0.52915    1.000
    N2379    N        0.36421    0.91956    0.59566    1.000
    N2380    N        0.36138    0.98276    0.56633    1.000
    Si2381   Si       0.38781    0.94844    0.57308    1.000
    Si2382   Si       0.34908    0.76662    0.62885    1.000
    N2383    N        0.38628    0.82257    0.71472    1.000
    Si2384   Si       0.35019    0.84389    0.72966    1.000
    Si2385   Si       0.36995    0.78229    0.70158    1.000
    N2386    N        0.34686    0.76990    0.73660    1.000
    N2387    N        0.39255    0.87445    0.64335    1.000
    Si2388   Si       0.39068    0.90717    0.73228    1.000
    N2389    N        0.39316    0.94901    0.71865    1.000
    Si2390   Si       0.36057    0.97270    0.70884    1.000
    N2391    N        0.35408    0.88837    0.71674    1.000
    N2392    N        0.37333    0.81520    0.83194    1.000
    Si2393   Si       0.37143    0.84742    0.80503    1.000
    Si2394   Si       0.35039    0.77867    0.82473    1.000
    N2395    N        0.34356    0.84082    0.77226    1.000
    Si2396   Si       0.34696    0.87825    0.86867    1.000
    N2397    N        0.34209    0.75884    0.86247    1.000
    N2398    N        0.35386    0.88194    0.82394    1.000
    N2399    N        0.34431    0.95096    0.82478    1.000
    Si2400   Si       0.36403    0.98997    0.82735    1.000
    N2401    N        0.38476    0.91446    0.77625    1.000
    Si2402   Si       0.34875    0.91596    0.79998    1.000
    N2403    N        0.39224    0.97540    0.85772    1.000
    N2404    N        0.37439    0.00932    0.79138    1.000
    N2405    N        0.38206    0.77273    0.97084    1.000
    N2406    N        0.35952    0.84187    0.95297    1.000
    N2407    N        0.36747    0.79753    0.91032    1.000
    Si2408   Si       0.38734    0.80766    0.94777    1.000
    Si2409   Si       0.37791    0.76265    0.88736    1.000
    N2410    N        0.38183    0.87944    0.89475    1.000
    N2411    N        0.35191    0.99730    0.98235    1.000
    Si2412   Si       0.36398    0.99106    0.88924    1.000
    N2413    N        0.34333    0.91177    0.94398    1.000
    Si2414   Si       0.37565    0.88455    0.93731    1.000
    N2415    N        0.38837    0.99847    0.92412    1.000
    N2416    N        0.41530    0.04058    0.06640    1.000
    N2417    N        0.41633    0.09230    0.01838    1.000
    Si2418   Si       0.45624    0.07863    0.00725    1.000
    Si2419   Si       0.45638    0.02347    0.05790    1.000
    N2420    N        0.41786    0.21746    0.04693    1.000
    Si2421   Si       0.42800    0.19809    0.08724    1.000
    Si2422   Si       0.41800    0.19084    0.01350    1.000
    N2423    N        0.40796    0.16145    0.09407    1.000
    Si2424   Si       0.42712    0.25912    0.04081    1.000
    Si2425   Si       0.42374    0.12952    0.11777    1.000
    N2426    N        0.42231    0.08149    0.19639    1.000
    Si2427   Si       0.44437    0.05218    0.22303    1.000
    N2428    N        0.41411    0.02811    0.23950    1.000
    Si2429   Si       0.45572    0.10973    0.20720    1.000
    Si2430   Si       0.40688    0.24841    0.19265    1.000
    N2431    N        0.42118    0.22685    0.11802    1.000
    N2432    N        0.44117    0.14820    0.21785    1.000
    N2433    N        0.40354    0.20546    0.18870    1.000
    Si2434   Si       0.45343    0.24335    0.14311    1.000
    Si2435   Si       0.42014    0.16557    0.18466    1.000
    N2436    N        0.44500    0.14789    0.15343    1.000
    N2437    N        0.41035    0.11051    0.34409    1.000
    Si2438   Si       0.45253    0.10029    0.34881    1.000
    N2439    N        0.44386    0.05941    0.36541    1.000
    N2440    N        0.42482    0.12392    0.27295    1.000
    N2441    N        0.44747    0.23488    0.34196    1.000
    N2442    N        0.44926    0.20888    0.25738    1.000
    Si2443   Si       0.40705    0.21671    0.26287    1.000
    N2444    N        0.42899    0.17338    0.35427    1.000
    Si2445   Si       0.42451    0.25739    0.31452    1.000
    N2446    N        0.44690    0.08451    0.43894    1.000
    Si2447   Si       0.41116    0.06049    0.43062    1.000
    N2448    N        0.41857    0.01688    0.43794    1.000
    Si2449   Si       0.43600    0.12074    0.46880    1.000
    Si2450   Si       0.42305    0.21490    0.37209    1.000
    N2451    N        0.41744    0.25410    0.39903    1.000
    N2452    N        0.43054    0.22677    0.46360    1.000
    Si2453   Si       0.39942    0.24486    0.43761    1.000
    Si2454   Si       0.44910    0.18937    0.44846    1.000
    N2455    N        0.42681    0.10783    0.56106    1.000
    N2456    N        0.40558    0.02952    0.57396    1.000
    N2457    N        0.45770    0.09925    0.49942    1.000
    N2458    N        0.41440    0.21728    0.58258    1.000
    Si2459   Si       0.41005    0.18327    0.61093    1.000
    Si2460   Si       0.45382    0.24598    0.49531    1.000
    N2461    N        0.42730    0.15823    0.49628    1.000
    N2462    N        0.44983    0.16312    0.61716    1.000
    N2463    N        0.44526    0.02109    0.62927    1.000
    Si2464   Si       0.44166    0.04324    0.71461    1.000
    Si2465   Si       0.43359    0.11503    0.69147    1.000
    N2466    N        0.44546    0.12084    0.73249    1.000
    N2467    N        0.40714    0.04083    0.74119    1.000
    N2468    N        0.43285    0.07171    0.68357    1.000
    Si2469   Si       0.43441    0.06081    0.64171    1.000
    N2470    N        0.39792    0.07865    0.62671    1.000
    N2471    N        0.40826    0.22165    0.71121    1.000
    Si2472   Si       0.42112    0.22524    0.66967    1.000
    Si2473   Si       0.43289    0.23987    0.74412    1.000
    N2474    N        0.41915    0.09973    0.84750    1.000
    N2475    N        0.43576    0.03104    0.81263    1.000
    Si2476   Si       0.44213    0.07285    0.82313    1.000
    Si2477   Si       0.41548    0.01719    0.77673    1.000
    Si2478   Si       0.43736    0.13154    0.77432    1.000
    N2479    N        0.43688    0.17191    0.84485    1.000
    N2480    N        0.44238    0.22871    0.78697    1.000
    Si2481   Si       0.40686    0.14173    0.83718    1.000
    Si2482   Si       0.45480    0.19297    0.81052    1.000
    N2483    N        0.39894    0.13750    0.79358    1.000
    N2484    N        0.45242    0.00974    0.95166    1.000
    Si2485   Si       0.42144    0.09873    0.89154    1.000
    Si2486   Si       0.43875    0.05147    0.94662    1.000
    N2487    N        0.43890    0.06200    0.90505    1.000
    N2488    N        0.45015    0.13091    0.90264    1.000
    N2489    N        0.46227    0.08226    0.96380    1.000
    N2490    N        0.45662    0.25445    0.94641    1.000
    N2491    N        0.41573    0.19084    0.90686    1.000
    Si2492   Si       0.44860    0.17215    0.88840    1.000
    N2493    N        0.41749    0.14991    0.96761    1.000
    N2494    N        0.43141    0.28989    0.06981    1.000
    N2495    N        0.41486    0.27151    0.00143    1.000
    N2496    N        0.45940    0.40117    0.07849    1.000
    Si2497   Si       0.41990    0.43100    0.00106    1.000
    N2498    N        0.43026    0.46871    0.06725    1.000
    Si2499   Si       0.42818    0.48896    0.10688    1.000
    Si2500   Si       0.43820    0.41214    0.11368    1.000
    N2501    N        0.44600    0.26009    0.18189    1.000
    Si2502   Si       0.45099    0.34246    0.14656    1.000
    Si2503   Si       0.41633    0.33421    0.20698    1.000
    N2504    N        0.44287    0.30894    0.22867    1.000
    N2505    N        0.41444    0.32588    0.16281    1.000
    N2506    N        0.42070    0.37560    0.21782    1.000
    Si2507   Si       0.42194    0.39973    0.18194    1.000
    N2508    N        0.44387    0.38542    0.14809    1.000
    Si2509   Si       0.44940    0.46385    0.16421    1.000
    N2510    N        0.45856    0.44928    0.12371    1.000
    Si2511   Si       0.45510    0.43732    0.23784    1.000
    N2512    N        0.41403    0.48216    0.14998    1.000
    N2513    N        0.44670    0.43344    0.19490    1.000
    N2514    N        0.42347    0.37289    0.35253    1.000
    Si2515   Si       0.43504    0.37386    0.31002    1.000
    N2516    N        0.45252    0.27167    0.28492    1.000
    N2517    N        0.40574    0.28862    0.33816    1.000
    N2518    N        0.41499    0.50343    0.28697    1.000
    N2519    N        0.41761    0.43515    0.25982    1.000
    N2520    N        0.40708    0.45386    0.33003    1.000
    Si2521   Si       0.44999    0.44262    0.33802    1.000
    Si2522   Si       0.40110    0.46151    0.28855    1.000
    Si2523   Si       0.41940    0.29200    0.37883    1.000
    N2524    N        0.45019    0.36038    0.48954    1.000
    N2525    N        0.45507    0.36798    0.41890    1.000
    Si2526   Si       0.44836    0.38862    0.38324    1.000
    N2527    N        0.39964    0.49890    0.38422    1.000
    Si2528   Si       0.43916    0.38648    0.45470    1.000
    Si2529   Si       0.41570    0.49511    0.48593    1.000
    N2530    N        0.39679    0.39433    0.45786    1.000
    N2531    N        0.43912    0.35077    0.55888    1.000
    N2532    N        0.43382    0.28421    0.50482    1.000
    Si2533   Si       0.42640    0.28600    0.61403    1.000
    Si2534   Si       0.40074    0.32916    0.55748    1.000
    N2535    N        0.40027    0.29137    0.58037    1.000
    Si2536   Si       0.45630    0.37843    0.52947    1.000
    N2537    N        0.45651    0.48280    0.49759    1.000
    N2538    N        0.41096    0.46930    0.56282    1.000
    N2539    N        0.43953    0.41754    0.52665    1.000
    Si2540   Si       0.44738    0.47939    0.58293    1.000
    Si2541   Si       0.40489    0.42677    0.55015    1.000
    N2542    N        0.40453    0.40551    0.58776    1.000
    Si2543   Si       0.43225    0.41480    0.61928    1.000
    Si2544   Si       0.41009    0.30803    0.72464    1.000
    N2545    N        0.41134    0.26456    0.64991    1.000
    N2546    N        0.43823    0.32449    0.62772    1.000
    N2547    N        0.44752    0.31942    0.70381    1.000
    N2548    N        0.39879    0.34479    0.74219    1.000
    N2549    N        0.44924    0.45501    0.62007    1.000
    Si2550   Si       0.41457    0.38392    0.74240    1.000
    N2551    N        0.45434    0.45850    0.72990    1.000
    N2552    N        0.41834    0.48870    0.67846    1.000
    Si2553   Si       0.41047    0.46814    0.64237    1.000
    N2554    N        0.40192    0.42761    0.64803    1.000
    Si2555   Si       0.43820    0.30068    0.84051    1.000
    N2556    N        0.44235    0.34266    0.86105    1.000
    N2557    N        0.40969    0.27522    0.75240    1.000
    Si2558   Si       0.41303    0.37307    0.86663    1.000
    N2559    N        0.40254    0.30259    0.81555    1.000
    N2560    N        0.43011    0.48518    0.84998    1.000
    N2561    N        0.41911    0.39268    0.78429    1.000
    N2562    N        0.42150    0.41259    0.84820    1.000
    Si2563   Si       0.44787    0.46069    0.77465    1.000
    N2564    N        0.40732    0.45537    0.78595    1.000
    Si2565   Si       0.40057    0.41920    0.81165    1.000
    N2566    N        0.45542    0.50184    0.78777    1.000
    N2567    N        0.43268    0.27908    0.87511    1.000
    Si2568   Si       0.43591    0.28086    0.91627    1.000
    N2569    N        0.41077    0.38461    0.90745    1.000
    Si2570   Si       0.45615    0.26638    0.98694    1.000
    N2571    N        0.42672    0.34959    0.00013    1.000
    Si2572   Si       0.43179    0.44767    0.87139    1.000
    N2573    N        0.43248    0.43159    0.95882    1.000
    Si2574   Si       0.40349    0.42014    0.92902    1.000
    N2575    N        0.43318    0.56668    0.07591    1.000
    Si2576   Si       0.43685    0.61109    0.07696    1.000
    N2577    N        0.40218    0.62754    0.05099    1.000
    N2578    N        0.40489    0.52628    0.02949    1.000
    N2579    N        0.44264    0.62464    0.11934    1.000
    Si2580   Si       0.43425    0.64350    0.02458    1.000
    N2581    N        0.41683    0.74404    0.04492    1.000
    Si2582   Si       0.42719    0.72213    0.08313    1.000
    N2583    N        0.44227    0.68543    0.02331    1.000
    N2584    N        0.41492    0.68072    0.08949    1.000
    Si2585   Si       0.40461    0.71054    0.01839    1.000
    N2586    N        0.45269    0.56353    0.15525    1.000
    N2587    N        0.44549    0.54211    0.22184    1.000
    N2588    N        0.43968    0.61249    0.19986    1.000
    Si2589   Si       0.43207    0.56953    0.19089    1.000
    Si2590   Si       0.39923    0.61587    0.21712    1.000
    N2591    N        0.44690    0.69790    0.14652    1.000
    Si2592   Si       0.42198    0.66364    0.12922    1.000
    Si2593   Si       0.43589    0.72827    0.17353    1.000
    N2594    N        0.39796    0.72254    0.19356    1.000
    N2595    N        0.41640    0.54276    0.33954    1.000
    Si2596   Si       0.44716    0.56376    0.36439    1.000
    Si2597   Si       0.45043    0.51943    0.31525    1.000
    Si2598   Si       0.44136    0.51416    0.25384    1.000
    N2599    N        0.40301    0.62086    0.25948    1.000
    Si2600   Si       0.42102    0.63492    0.35166    1.000
    Si2601   Si       0.41879    0.72201    0.29175    1.000
    Si2602   Si       0.44416    0.69725    0.34163    1.000
    N2603    N        0.43877    0.65923    0.32104    1.000
    N2604    N        0.40953    0.72277    0.33407    1.000
    Si2605   Si       0.41112    0.66195    0.25040    1.000
    N2606    N        0.45234    0.66922    0.24954    1.000
    N2607    N        0.44623    0.60555    0.37256    1.000
    Si2608   Si       0.42239    0.52331    0.41095    1.000
    N2609    N        0.41764    0.61447    0.45112    1.000
    Si2610   Si       0.42982    0.62593    0.49045    1.000
    N2611    N        0.43292    0.51210    0.44985    1.000
    N2612    N        0.39758    0.55822    0.40347    1.000
    N2613    N        0.40609    0.75173    0.45304    1.000
    Si2614   Si       0.42094    0.71098    0.45603    1.000
    Si2615   Si       0.42250    0.64678    0.42130    1.000
    N2616    N        0.42771    0.66797    0.38258    1.000
    N2617    N        0.45992    0.70548    0.43888    1.000
    N2618    N        0.42031    0.56558    0.56825    1.000
    Si2619   Si       0.44027    0.55646    0.53083    1.000
    Si2620   Si       0.44546    0.55747    0.60269    1.000
    N2621    N        0.44944    0.59597    0.51454    1.000
    N2622    N        0.41052    0.53436    0.50832    1.000
    N2623    N        0.42405    0.73859    0.56580    1.000
    N2624    N        0.41282    0.70493    0.49872    1.000
    N2625    N        0.42421    0.57000    0.64022    1.000
    Si2626   Si       0.45443    0.59906    0.64907    1.000
    N2627    N        0.45059    0.62851    0.74377    1.000
    N2628    N        0.44815    0.71538    0.65927    1.000
    N2629    N        0.40619    0.67264    0.62799    1.000
    N2630    N        0.43823    0.63765    0.66492    1.000
    N2631    N        0.41573    0.68835    0.72732    1.000
    Si2632   Si       0.44715    0.67517    0.64089    1.000
    Si2633   Si       0.41212    0.73972    0.65152    1.000
    Si2634   Si       0.42483    0.73009    0.71756    1.000
    N2635    N        0.43714    0.56390    0.77217    1.000
    N2636    N        0.40999    0.60593    0.81798    1.000
    Si2637   Si       0.42292    0.56488    0.81360    1.000
    Si2638   Si       0.44800    0.62051    0.83424    1.000
    Si2639   Si       0.43651    0.52501    0.75540    1.000
    N2640    N        0.45271    0.54783    0.83993    1.000
    Si2641   Si       0.39858    0.51507    0.85892    1.000
    N2642    N        0.45155    0.66231    0.83535    1.000
    N2643    N        0.44074    0.72310    0.80829    1.000
    Si2644   Si       0.41951    0.68856    0.82311    1.000
    Si2645   Si       0.44219    0.66886    0.75661    1.000
    N2646    N        0.41097    0.66656    0.78722    1.000
    N2647    N        0.41073    0.74746    0.75418    1.000
    Si2648   Si       0.41579    0.75516    0.79647    1.000
    N2649    N        0.44811    0.60608    0.87613    1.000
    N2650    N        0.41420    0.53820    0.89253    1.000
    N2651    N        0.41330    0.59528    0.93207    1.000
    Si2652   Si       0.44870    0.56206    0.88002    1.000
    N2653    N        0.45129    0.56495    0.98205    1.000
    Si2654   Si       0.41475    0.62631    0.89945    1.000
    Si2655   Si       0.45726    0.59062    0.94490    1.000
    Si2656   Si       0.41325    0.54846    0.99472    1.000
    Si2657   Si       0.42607    0.67803    0.95910    1.000
    N2658    N        0.45510    0.71522    0.87775    1.000
    N2659    N        0.41914    0.63934    0.98509    1.000
    Si2660   Si       0.41654    0.70264    0.89282    1.000
    N2661    N        0.42086    0.66639    0.91625    1.000
    N2662    N        0.43492    0.84077    0.06748    1.000
    Si2663   Si       0.43714    0.83422    0.10990    1.000
    N2664    N        0.42592    0.92631    0.08716    1.000
    Si2665   Si       0.42450    0.95251    0.05370    1.000
    N2666    N        0.40908    0.98695    0.10830    1.000
    N2667    N        0.44865    0.93430    0.02316    1.000
    Si2668   Si       0.45205    0.97496    0.10787    1.000
    N2669    N        0.40082    0.82053    0.12504    1.000
    N2670    N        0.42672    0.76940    0.16541    1.000
    N2671    N        0.44865    0.84128    0.19165    1.000
    Si2672   Si       0.41077    0.83755    0.21591    1.000
    N2673    N        0.44868    0.87214    0.12861    1.000
    Si2674   Si       0.45343    0.80391    0.16790    1.000
    N2675    N        0.40311    0.79608    0.22275    1.000
    Si2676   Si       0.45614    0.87882    0.16938    1.000
    N2677    N        0.42745    0.90834    0.18614    1.000
    N2678    N        0.41920    0.98649    0.18100    1.000
    Si2679   Si       0.44322    0.93923    0.21305    1.000
    Si2680   Si       0.40027    0.99159    0.21916    1.000
    N2681    N        0.41812    0.96186    0.24210    1.000
    N2682    N        0.43414    0.83643    0.31886    1.000
    Si2683   Si       0.43053    0.79129    0.31728    1.000
    Si2684   Si       0.44495    0.85574    0.28256    1.000
    Si2685   Si       0.43359    0.85066    0.36072    1.000
    N2686    N        0.40779    0.85985    0.25670    1.000
    N2687    N        0.41661    0.76356    0.28340    1.000
    N2688    N        0.42297    0.96746    0.32120    1.000
    Si2689   Si       0.40021    0.96409    0.28225    1.000
    N2690    N        0.43386    0.85040    0.44449    1.000
    Si2691   Si       0.40914    0.77715    0.48899    1.000
    N2692    N        0.45856    0.82234    0.38524    1.000
    Si2693   Si       0.42921    0.95294    0.42564    1.000
    N2694    N        0.44101    0.91268    0.41725    1.000
    N2695    N        0.44752    0.91056    0.48264    1.000
    Si2696   Si       0.42356    0.89207    0.44934    1.000
    N2697    N        0.40688    0.96468    0.39066    1.000
    N2698    N        0.39986    0.94879    0.45799    1.000
    N2699    N        0.41876    0.80171    0.56374    1.000
    Si2700   Si       0.44771    0.77369    0.54796    1.000
    N2701    N        0.43919    0.86645    0.53820    1.000
    N2702    N        0.44881    0.77699    0.50435    1.000
    Si2703   Si       0.43176    0.84090    0.57218    1.000
    N2704    N        0.45054    0.84133    0.61116    1.000
    N2705    N        0.42285    0.96335    0.59627    1.000
    Si2706   Si       0.41986    0.94807    0.50026    1.000
    N2707    N        0.41044    0.99596    0.50867    1.000
    N2708    N        0.40162    0.92975    0.53631    1.000
    Si2709   Si       0.45237    0.00775    0.51870    1.000
    Si2710   Si       0.43711    0.00504    0.59004    1.000
    Si2711   Si       0.45269    0.94022    0.61913    1.000
    Si2712   Si       0.40051    0.88676    0.54165    1.000
    N2713    N        0.44829    0.81156    0.73741    1.000
    Si2714   Si       0.43511    0.86749    0.64266    1.000
    N2715    N        0.42699    0.77517    0.62853    1.000
    N2716    N        0.44327    0.83508    0.67329    1.000
    Si2717   Si       0.42631    0.83859    0.71182    1.000
    Si2718   Si       0.45487    0.80693    0.64134    1.000
    N2719    N        0.42573    0.88018    0.72540    1.000
    Si2720   Si       0.43175    0.97089    0.72197    1.000
    N2721    N        0.44527    0.00366    0.69871    1.000
    N2722    N        0.45685    0.90464    0.64447    1.000
    N2723    N        0.43398    0.79378    0.80354    1.000
    Si2724   Si       0.44102    0.82736    0.77831    1.000
    N2725    N        0.41200    0.85704    0.79153    1.000
    Si2726   Si       0.41568    0.80655    0.84244    1.000
    N2727    N        0.43548    0.83837    0.86219    1.000
    N2728    N        0.41419    0.77104    0.86489    1.000
    Si2729   Si       0.41778    0.89920    0.79817    1.000
    Si2730   Si       0.42787    0.95093    0.85862    1.000
    N2731    N        0.42123    0.90997    0.84077    1.000
    N2732    N        0.44021    0.98189    0.76214    1.000
    N2733    N        0.45320    0.91624    0.77902    1.000
    N2734    N        0.45683    0.77045    0.91729    1.000
    N2735    N        0.42760    0.82344    0.95239    1.000
    Si2736   Si       0.42349    0.85441    0.98175    1.000
    Si2737   Si       0.45372    0.75834    0.87752    1.000
    Si2738   Si       0.41918    0.87823    0.87310    1.000
    N2739    N        0.40958    0.89160    0.96479    1.000
    Si2740   Si       0.43633    0.92329    0.98080    1.000
    N2741    N        0.43835    0.95372    0.90142    1.000
    N2742    N        0.45183    0.88724    0.89723    1.000
    N2743    N        0.40935    0.95645    0.97273    1.000
    Si2744   Si       0.42396    0.97857    0.93616    1.000
    N2745    N        0.48090    0.10138    0.03604    1.000
    N2746    N        0.48490    0.04727    0.08201    1.000
    Si2747   Si       0.48751    0.09041    0.07929    1.000
    N2748    N        0.45776    0.03420    0.01505    1.000
    N2749    N        0.46128    0.11020    0.10752    1.000
    N2750    N        0.47076    0.24984    0.02552    1.000
    N2751    N        0.47125    0.19339    0.08450    1.000
    Si2752   Si       0.47977    0.20705    0.04319    1.000
    N2753    N        0.46141    0.18287    0.01134    1.000
    Si2754   Si       0.49925    0.19241    0.11716    1.000
    Si2755   Si       0.50393    0.02639    0.11716    1.000
    Si2756   Si       0.50502    0.06159    0.18858    1.000
    N2757    N        0.47373    0.03144    0.19630    1.000
    N2758    N        0.48796    0.10026    0.17884    1.000
    Si2759   Si       0.48018    0.12668    0.14463    1.000
    N2760    N        0.46680    0.08311    0.24101    1.000
    N2761    N        0.51245    0.15275    0.12926    1.000
    Si2762   Si       0.51512    0.25298    0.12916    1.000
    N2763    N        0.48794    0.21742    0.15124    1.000
    Si2764   Si       0.50507    0.23303    0.18896    1.000
    Si2765   Si       0.46929    0.17536    0.23934    1.000
    N2766    N        0.49834    0.19628    0.21490    1.000
    Si2767   Si       0.49359    0.05227    0.31027    1.000
    N2768    N        0.47353    0.09126    0.31211    1.000
    Si2769   Si       0.46527    0.11001    0.27362    1.000
    N2770    N        0.46703    0.01991    0.30586    1.000
    N2771    N        0.50809    0.04922    0.35269    1.000
    N2772    N        0.49054    0.14496    0.26476    1.000
    Si2773   Si       0.47527    0.24156    0.26468    1.000
    Si2774   Si       0.48885    0.23124    0.33653    1.000
    N2775    N        0.50583    0.22833    0.29567    1.000
    N2776    N        0.50240    0.19534    0.35814    1.000
    N2777    N        0.50065    0.25636    0.36890    1.000
    Si2778   Si       0.47496    0.03191    0.37651    1.000
    N2779    N        0.47158    0.12849    0.37526    1.000
    N2780    N        0.48629    0.03120    0.41877    1.000
    Si2781   Si       0.47187    0.11260    0.41478    1.000
    Si2782   Si       0.47453    0.07001    0.47354    1.000
    N2783    N        0.46646    0.03073    0.48612    1.000
    N2784    N        0.51341    0.11768    0.42504    1.000
    Si2785   Si       0.46177    0.01034    0.44837    1.000
    N2786    N        0.49635    0.25443    0.49119    1.000
    N2787    N        0.45525    0.19956    0.40502    1.000
    Si2788   Si       0.46851    0.17102    0.37421    1.000
    Si2789   Si       0.50391    0.15447    0.45023    1.000
    N2790    N        0.48464    0.19031    0.47661    1.000
    Si2791   Si       0.50990    0.22207    0.39692    1.000
    N2792    N        0.45872    0.14646    0.44105    1.000
    Si2793   Si       0.50062    0.03258    0.56352    1.000
    N2794    N        0.49129    0.07398    0.55608    1.000
    Si2795   Si       0.46560    0.10750    0.54081    1.000
    N2796    N        0.51597    0.02356    0.60326    1.000
    N2797    N        0.50820    0.13389    0.60296    1.000
    N2798    N        0.47717    0.15116    0.54167    1.000
    N2799    N        0.49094    0.20313    0.59045    1.000
    Si2800   Si       0.50181    0.16342    0.57347    1.000
    Si2801   Si       0.46287    0.17891    0.51358    1.000
    N2802    N        0.45729    0.21745    0.53100    1.000
    Si2803   Si       0.45771    0.22826    0.57363    1.000
    N2804    N        0.46882    0.08250    0.62468    1.000
    Si2805   Si       0.47056    0.12692    0.62690    1.000
    Si2806   Si       0.50379    0.05782    0.62974    1.000
    N2807    N        0.49644    0.03489    0.66647    1.000
    N2808    N        0.47967    0.05653    0.73096    1.000
    Si2809   Si       0.51194    0.03815    0.70644    1.000
    N2810    N        0.46988    0.12810    0.67113    1.000
    Si2811   Si       0.49227    0.21249    0.69699    1.000
    N2812    N        0.46111    0.21253    0.66389    1.000
    Si2813   Si       0.48116    0.19008    0.63150    1.000
    N2814    N        0.49512    0.17697    0.72055    1.000
    N2815    N        0.47097    0.24245    0.72307    1.000
    N2816    N        0.51541    0.18147    0.65747    1.000
    Si2817   Si       0.50277    0.14875    0.69035    1.000
    N2818    N        0.47568    0.06126    0.84642    1.000
    N2819    N        0.50650    0.01397    0.81564    1.000
    Si2820   Si       0.46838    0.01179    0.83604    1.000
    Si2821   Si       0.47699    0.09268    0.75085    1.000
    N2822    N        0.51391    0.11621    0.74996    1.000
    Si2823   Si       0.51627    0.05315    0.82982    1.000
    N2824    N        0.45587    0.09557    0.78911    1.000
    N2825    N        0.46619    0.16289    0.78215    1.000
    N2826    N        0.48876    0.21579    0.82602    1.000
    Si2827   Si       0.50372    0.15969    0.75899    1.000
    Si2828   Si       0.51024    0.20161    0.86093    1.000
    Si2829   Si       0.48007    0.25132    0.80238    1.000
    N2830    N        0.51551    0.25480    0.77555    1.000
    Si2831   Si       0.47865    0.05171    0.88820    1.000
    N2832    N        0.50003    0.08353    0.90673    1.000
    Si2833   Si       0.47648    0.11075    0.93195    1.000
    Si2834   Si       0.48039    0.01269    0.98562    1.000
    N2835    N        0.48452    0.00867    0.88099    1.000
    Si2836   Si       0.49011    0.17166    0.98078    1.000
    N2837    N        0.48276    0.20003    0.89563    1.000
    N2838    N        0.50021    0.13895    0.95385    1.000
    N2839    N        0.50542    0.20781    0.96331    1.000
    Si2840   Si       0.48713    0.22856    0.92856    1.000
    Si2841   Si       0.48166    0.36573    0.08187    1.000
    N2842    N        0.47879    0.34413    0.04460    1.000
    Si2843   Si       0.47165    0.29922    0.08382    1.000
    N2844    N        0.50878    0.29301    0.06212    1.000
    N2845    N        0.47519    0.26734    0.11464    1.000
    Si2846   Si       0.51332    0.26207    0.03039    1.000
    N2847    N        0.46466    0.33546    0.10772    1.000
    Si2848   Si       0.46847    0.34260    0.00100    1.000
    N2849    N        0.49897    0.45585    0.07094    1.000
    Si2850   Si       0.49366    0.47418    0.11133    1.000
    Si2851   Si       0.46205    0.43931    0.05791    1.000
    N2852    N        0.45975    0.42954    0.01706    1.000
    N2853    N        0.47724    0.32971    0.18051    1.000
    Si2854   Si       0.47410    0.29011    0.19960    1.000
    N2855    N        0.50865    0.27251    0.17003    1.000
    N2856    N        0.49459    0.26094    0.22958    1.000
    Si2857   Si       0.51546    0.34864    0.18692    1.000
    N2858    N        0.47718    0.49470    0.17238    1.000
    N2859    N        0.46429    0.47945    0.23866    1.000
    Si2860   Si       0.49524    0.49252    0.21184    1.000
    N2861    N        0.50483    0.31364    0.26728    1.000
    Si2862   Si       0.50423    0.33716    0.30557    1.000
    Si2863   Si       0.46113    0.31106    0.26930    1.000
    N2864    N        0.46019    0.34155    0.29947    1.000
    Si2865   Si       0.50060    0.29795    0.37190    1.000
    Si2866   Si       0.49978    0.41008    0.29335    1.000
    N2867    N        0.46873    0.48071    0.32477    1.000
    N2868    N        0.49219    0.41899    0.25030    1.000
    N2869    N        0.46091    0.40978    0.30898    1.000
    Si2870   Si       0.51155    0.47752    0.32824    1.000
    N2871    N        0.45864    0.31059    0.38218    1.000
    Si2872   Si       0.47479    0.32977    0.41839    1.000
    Si2873   Si       0.50726    0.28421    0.45873    1.000
    N2874    N        0.47384    0.30895    0.45526    1.000
    N2875    N        0.51558    0.31592    0.40767    1.000
    Si2876   Si       0.45868    0.31720    0.49546    1.000
    N2877    N        0.49415    0.48270    0.44105    1.000
    Si2878   Si       0.47264    0.50999    0.46656    1.000
    Si2879   Si       0.49488    0.44280    0.45439    1.000
    N2880    N        0.47018    0.42437    0.37245    1.000
    N2881    N        0.45674    0.42560    0.45293    1.000
    N2882    N        0.49549    0.32988    0.58922    1.000
    N2883    N        0.49531    0.31340    0.52194    1.000
    Si2884   Si       0.50311    0.28928    0.60478    1.000
    N2885    N        0.46085    0.26573    0.59571    1.000
    N2886    N        0.49819    0.37998    0.53939    1.000
    Si2887   Si       0.51457    0.34089    0.55075    1.000
    Si2888   Si       0.51326    0.27336    0.52647    1.000
    Si2889   Si       0.45920    0.35165    0.59772    1.000
    Si2890   Si       0.46917    0.44737    0.51921    1.000
    N2891    N        0.47825    0.46088    0.55801    1.000
    N2892    N        0.50490    0.43498    0.49791    1.000
    N2893    N        0.46735    0.38724    0.62071    1.000
    N2894    N        0.51718    0.45019    0.61537    1.000
    N2895    N        0.51752    0.35956    0.73661    1.000
    N2896    N        0.49358    0.29443    0.64959    1.000
    Si2897   Si       0.47871    0.35092    0.71668    1.000
    N2898    N        0.49418    0.35153    0.67519    1.000
    Si2899   Si       0.46190    0.32038    0.66278    1.000
    Si2900   Si       0.51022    0.25874    0.73260    1.000
    Si2901   Si       0.45752    0.48798    0.69775    1.000
    N2902    N        0.45964    0.38691    0.73582    1.000
    N2903    N        0.49075    0.48705    0.67108    1.000
    N2904    N        0.47730    0.42180    0.67351    1.000
    Si2905   Si       0.47704    0.42305    0.71680    1.000
    Si2906   Si       0.48632    0.45340    0.64548    1.000
    Si2907   Si       0.49563    0.38880    0.65327    1.000
    Si2908   Si       0.49955    0.32604    0.81818    1.000
    N2909    N        0.47920    0.35892    0.80124    1.000
    N2910    N        0.47325    0.29063    0.81818    1.000
    N2911    N        0.50792    0.33434    0.85982    1.000
    N2912    N        0.47917    0.43300    0.78461    1.000
    N2913    N        0.49994    0.49170    0.84553    1.000
    Si2914   Si       0.46432    0.39055    0.77947    1.000
    N2915    N        0.46306    0.31512    0.92095    1.000
    Si2916   Si       0.49416    0.29723    0.94457    1.000
    N2917    N        0.47765    0.30282    0.98641    1.000
    Si2918   Si       0.47582    0.34277    0.89035    1.000
    N2919    N        0.50126    0.37623    0.90919    1.000
    N2920    N        0.48929    0.37450    0.97938    1.000
    N2921    N        0.51370    0.26246    0.92487    1.000
    N2922    N        0.46466    0.43693    0.89705    1.000
    N2923    N        0.49929    0.44988    0.96654    1.000
    Si2924   Si       0.50422    0.48810    0.88859    1.000
    Si2925   Si       0.50133    0.41612    0.88752    1.000
    Si2926   Si       0.49400    0.41605    0.99464    1.000
    Si2927   Si       0.46474    0.45435    0.93841    1.000
    N2928    N        0.47475    0.49501    0.92282    1.000
    Si2929   Si       0.46942    0.54528    0.08085    1.000
    N2930    N        0.49173    0.57734    0.10152    1.000
    N2931    N        0.49218    0.53792    0.04390    1.000
    Si2932   Si       0.48775    0.55303    0.00340    1.000
    N2933    N        0.50908    0.59099    0.00385    1.000
    Si2934   Si       0.50357    0.62421    0.02995    1.000
    N2935    N        0.46820    0.51186    0.10886    1.000
    N2936    N        0.46557    0.62381    0.04726    1.000
    N2937    N        0.49116    0.73242    0.01902    1.000
    Si2938   Si       0.50200    0.73507    0.06172    1.000
    N2939    N        0.46917    0.72175    0.08928    1.000
    Si2940   Si       0.47955    0.69457    0.00306    1.000
    N2941    N        0.50119    0.65719    0.00052    1.000
    Si2942   Si       0.47889    0.53028    0.15069    1.000
    N2943    N        0.50365    0.61173    0.16166    1.000
    N2944    N        0.49741    0.59453    0.23152    1.000
    Si2945   Si       0.47159    0.59706    0.13486    1.000
    Si2946   Si       0.48254    0.62202    0.20175    1.000
    Si2947   Si       0.48160    0.55476    0.24129    1.000
    N2948    N        0.51387    0.53072    0.22188    1.000
    Si2949   Si       0.50108    0.75430    0.18833    1.000
    Si2950   Si       0.48554    0.70964    0.12741    1.000
    N2951    N        0.51129    0.67507    0.12535    1.000
    N2952    N        0.47067    0.72712    0.20177    1.000
    N2953    N        0.50148    0.74591    0.14573    1.000
    N2954    N        0.49658    0.66232    0.19531    1.000
    Si2955   Si       0.48239    0.69167    0.22411    1.000
    N2956    N        0.47700    0.54928    0.33655    1.000
    N2957    N        0.47209    0.53478    0.27829    1.000
    Si2958   Si       0.50458    0.55036    0.30410    1.000
    Si2959   Si       0.46960    0.66920    0.29075    1.000
    Si2960   Si       0.48922    0.74633    0.30710    1.000
    N2961    N        0.50740    0.65066    0.29869    1.000
    N2962    N        0.46101    0.71255    0.30136    1.000
    Si2963   Si       0.51456    0.72774    0.36813    1.000
    N2964    N        0.47481    0.71309    0.36919    1.000
    N2965    N        0.51355    0.69881    0.25069    1.000
    Si2966   Si       0.48136    0.61864    0.39524    1.000
    Si2967   Si       0.49696    0.55369    0.42104    1.000
    N2968    N        0.49189    0.54778    0.46329    1.000
    N2969    N        0.50942    0.59263    0.40936    1.000
    N2970    N        0.46063    0.54070    0.39984    1.000
    N2971    N        0.46455    0.65237    0.49491    1.000
    N2972    N        0.49683    0.65046    0.36844    1.000
    Si2973   Si       0.46807    0.68330    0.39794    1.000
    Si2974   Si       0.48024    0.67322    0.46150    1.000
    N2975    N        0.46969    0.64750    0.42420    1.000
    N2976    N        0.48138    0.53811    0.52587    1.000
    Si2977   Si       0.49887    0.52863    0.56527    1.000
    Si2978   Si       0.50702    0.60381    0.58657    1.000
    Si2979   Si       0.48554    0.62184    0.51971    1.000
    N2980    N        0.47554    0.58955    0.61282    1.000
    N2981    N        0.46250    0.52119    0.58692    1.000
    Si2982   Si       0.51177    0.55665    0.50124    1.000
    N2983    N        0.49211    0.63552    0.56003    1.000
    Si2984   Si       0.51306    0.66426    0.58990    1.000
    Si2985   Si       0.49134    0.55626    0.70634    1.000
    N2986    N        0.47491    0.59037    0.68601    1.000
    N2987    N        0.46097    0.52609    0.71930    1.000
    Si2988   Si       0.46127    0.62957    0.70240    1.000
    Si2989   Si       0.47924    0.74311    0.67290    1.000
    N2990    N        0.48919    0.66280    0.69935    1.000
    N2991    N        0.48649    0.67264    0.62516    1.000
    Si2992   Si       0.50895    0.67847    0.66405    1.000
    Si2993   Si       0.51098    0.67207    0.73626    1.000
    N2994    N        0.46373    0.74615    0.71314    1.000
    N2995    N        0.47751    0.60685    0.80649    1.000
    Si2996   Si       0.47005    0.59528    0.76724    1.000
    Si2997   Si       0.46264    0.50668    0.82981    1.000
    N2998    N        0.50026    0.57502    0.74382    1.000
    Si2999   Si       0.48020    0.68522    0.85869    1.000
    N3000    N        0.50519    0.70582    0.82771    1.000
    Si3001   Si       0.48277    0.72210    0.79287    1.000
    N3002    N        0.48060    0.68889    0.76327    1.000
    Si3003   Si       0.49744    0.53167    0.93199    1.000
    Si3004   Si       0.49022    0.61500    0.89221    1.000
    N3005    N        0.50430    0.52529    0.97424    1.000
    N3006    N        0.48492    0.62276    0.93502    1.000
    N3007    N        0.47388    0.56234    0.91387    1.000
    N3008    N        0.46834    0.68812    0.95995    1.000
    Si3009   Si       0.50142    0.65785    0.95862    1.000
    N3010    N        0.50147    0.65516    0.88156    1.000
    Si3011   Si       0.46890    0.85578    0.04540    1.000
    N3012    N        0.50299    0.82895    0.03997    1.000
    N3013    N        0.51375    0.77220    0.07965    1.000
    N3014    N        0.46429    0.85786    0.00171    1.000
    Si3015   Si       0.49873    0.83176    0.99529    1.000
    N3016    N        0.48507    0.88559    0.07186    1.000
    Si3017   Si       0.48611    0.95461    0.03637    1.000
    N3018    N        0.50278    0.97538    0.00294    1.000
    Si3019   Si       0.45990    0.90219    0.10088    1.000
    N3020    N        0.46158    0.98099    0.06543    1.000
    N3021    N        0.47955    0.94111    0.11853    1.000
    Si3022   Si       0.50328    0.78392    0.11976    1.000
    N3023    N        0.46647    0.80559    0.12502    1.000
    Si3024   Si       0.48320    0.83019    0.21625    1.000
    N3025    N        0.48852    0.79504    0.19262    1.000
    Si3026   Si       0.46045    0.99686    0.17520    1.000
    N3027    N        0.47607    0.92682    0.23931    1.000
    N3028    N        0.48091    0.95964    0.18639    1.000
    Si3029   Si       0.50577    0.95278    0.22075    1.000
    Si3030   Si       0.50192    0.93429    0.15668    1.000
    N3031    N        0.49537    0.89531    0.17226    1.000
    N3032    N        0.47026    0.00391    0.13403    1.000
    Si3033   Si       0.48677    0.80010    0.36070    1.000
    Si3034   Si       0.49540    0.86836    0.33260    1.000
    N3035    N        0.46857    0.77696    0.32867    1.000
    N3036    N        0.51248    0.82952    0.34265    1.000
    N3037    N        0.46559    0.82719    0.25646    1.000
    N3038    N        0.50524    0.76392    0.27036    1.000
    N3039    N        0.47619    0.88250    0.29579    1.000
    N3040    N        0.46578    0.87950    0.36288    1.000
    Si3041   Si       0.48866    0.91928    0.27944    1.000
    N3042    N        0.48866    0.95531    0.30709    1.000
    Si3043   Si       0.46346    0.98208    0.32617    1.000
    N3044    N        0.47340    0.98978    0.36822    1.000
    N3045    N        0.50875    0.77077    0.38319    1.000
    N3046    N        0.48673    0.79614    0.44485    1.000
    N3047    N        0.49844    0.86255    0.42220    1.000
    Si3048   Si       0.46855    0.83191    0.42566    1.000
    Si3049   Si       0.48553    0.79853    0.48818    1.000
    N3050    N        0.48734    0.84099    0.49595    1.000
    Si3051   Si       0.48159    0.94734    0.47509    1.000
    N3052    N        0.50645    0.92901    0.39533    1.000
    Si3053   Si       0.49480    0.97045    0.40110    1.000
    Si3054   Si       0.47925    0.89616    0.40018    1.000
    N3055    N        0.46905    0.96949    0.43920    1.000
    N3056    N        0.48491    0.78809    0.56183    1.000
    Si3057   Si       0.46572    0.87887    0.50757    1.000
    N3058    N        0.50340    0.89629    0.51685    1.000
    N3059    N        0.47923    0.93489    0.58489    1.000
    Si3060   Si       0.48118    0.96159    0.55173    1.000
    N3061    N        0.46806    0.00421    0.55922    1.000
    N3062    N        0.46466    0.96535    0.50992    1.000
    N3063    N        0.48756    0.78397    0.66133    1.000
    Si3064   Si       0.47464    0.77923    0.73655    1.000
    N3065    N        0.51463    0.79039    0.72686    1.000
    N3066    N        0.51929    0.91108    0.67886    1.000
    N3067    N        0.47619    0.96311    0.64904    1.000
    Si3068   Si       0.48037    0.92936    0.67467    1.000
    N3069    N        0.49896    0.88983    0.73959    1.000
    Si3070   Si       0.46723    0.00313    0.66182    1.000
    N3071    N        0.45883    0.93724    0.71282    1.000
    Si3072   Si       0.45858    0.90405    0.73924    1.000
    Si3073   Si       0.47983    0.79412    0.81242    1.000
    N3074    N        0.47623    0.83747    0.79969    1.000
    N3075    N        0.50229    0.86083    0.85637    1.000
    N3076    N        0.48038    0.77951    0.85211    1.000
    N3077    N        0.48826    0.76480    0.77843    1.000
    Si3078   Si       0.51388    0.84988    0.81549    1.000
    N3079    N        0.50933    0.94678    0.79384    1.000
    Si3080   Si       0.46605    0.95531    0.79105    1.000
    N3081    N        0.45734    0.96894    0.83134    1.000
    Si3082   Si       0.47271    0.85146    0.88381    1.000
    N3083    N        0.48525    0.79527    0.97798    1.000
    N3084    N        0.49257    0.83037    0.91657    1.000
    Si3085   Si       0.46534    0.80352    0.94104    1.000
    Si3086   Si       0.50831    0.76277    0.99353    1.000
    Si3087   Si       0.50993    0.97547    0.89222    1.000
    Si3088   Si       0.46580    0.92247    0.91364    1.000
    Si3089   Si       0.50673    0.94983    0.96690    1.000
    N3090    N        0.47000    0.93085    0.95571    1.000
    N3091    N        0.50622    0.92909    0.89881    1.000
    N3092    N        0.53185    0.10032    0.07154    1.000
    Si3093   Si       0.56997    0.09045    0.08981    1.000
    Si3094   Si       0.56693    0.01241    0.07885    1.000
    N3095    N        0.56340    0.01443    0.03671    1.000
    Si3096   Si       0.52015    0.11784    0.03223    1.000
    N3097    N        0.56948    0.04809    0.10259    1.000
    Si3098   Si       0.55580    0.22218    0.07283    1.000
    Si3099   Si       0.54850    0.18485    0.02757    1.000
    N3100    N        0.53293    0.21832    0.10760    1.000
    N3101    N        0.52246    0.15515    0.00958    1.000
    N3102    N        0.57131    0.18178    0.06386    1.000
    N3103    N        0.52264    0.21900    0.04274    1.000
    N3104    N        0.56909    0.19998    0.99437    1.000
    Si3105   Si       0.56500    0.05743    0.14550    1.000
    N3106    N        0.55774    0.09979    0.13609    1.000
    N3107    N        0.53888    0.07315    0.21541    1.000
    Si3108   Si       0.55634    0.11408    0.21380    1.000
    N3109    N        0.52524    0.04343    0.15282    1.000
    Si3110   Si       0.54444    0.18541    0.21255    1.000
    N3111    N        0.54629    0.21856    0.18366    1.000
    Si3112   Si       0.54945    0.14078    0.14768    1.000
    N3113    N        0.54060    0.14847    0.19093    1.000
    N3114    N        0.53091    0.05160    0.28833    1.000
    N3115    N        0.55178    0.11472    0.25812    1.000
    Si3116   Si       0.55457    0.07019    0.25692    1.000
    Si3117   Si       0.56597    0.02679    0.29935    1.000
    Si3118   Si       0.54945    0.05575    0.36303    1.000
    N3119    N        0.55154    0.10139    0.36618    1.000
    Si3120   Si       0.56905    0.13325    0.34593    1.000
    N3121    N        0.54630    0.18547    0.25815    1.000
    N3122    N        0.54000    0.15217    0.31835    1.000
    Si3123   Si       0.54653    0.22284    0.27933    1.000
    Si3124   Si       0.54345    0.18863    0.33995    1.000
    Si3125   Si       0.53301    0.14855    0.27675    1.000
    N3126    N        0.56700    0.21720    0.31781    1.000
    N3127    N        0.55062    0.05469    0.40702    1.000
    Si3128   Si       0.54631    0.10432    0.47143    1.000
    Si3129   Si       0.52911    0.02737    0.43038    1.000
    N3130    N        0.54714    0.01482    0.46854    1.000
    Si3131   Si       0.54905    0.09735    0.40924    1.000
    N3132    N        0.51721    0.07211    0.47127    1.000
    N3133    N        0.56708    0.16720    0.37341    1.000
    Si3134   Si       0.56606    0.17184    0.48471    1.000
    N3135    N        0.51970    0.18668    0.42653    1.000
    Si3136   Si       0.56054    0.18627    0.40966    1.000
    N3137    N        0.53394    0.14336    0.48002    1.000
    N3138    N        0.55531    0.22565    0.39221    1.000
    N3139    N        0.50921    0.24703    0.43432    1.000
    Si3140   Si       0.51578    0.21927    0.46681    1.000
    Si3141   Si       0.55016    0.11591    0.60841    1.000
    N3142    N        0.53086    0.02401    0.53454    1.000
    N3143    N        0.56803    0.08204    0.50517    1.000
    N3144    N        0.57115    0.11834    0.56829    1.000
    Si3145   Si       0.54253    0.04461    0.49762    1.000
    N3146    N        0.53952    0.17971    0.56067    1.000
    Si3147   Si       0.53131    0.21970    0.57792    1.000
    N3148    N        0.57149    0.23442    0.58339    1.000
    N3149    N        0.51704    0.25956    0.56926    1.000
    N3150    N        0.55034    0.21140    0.49231    1.000
    N3151    N        0.54441    0.06801    0.69883    1.000
    Si3152   Si       0.54736    0.10364    0.72057    1.000
    Si3153   Si       0.56392    0.06095    0.66112    1.000
    N3154    N        0.56842    0.01838    0.64661    1.000
    N3155    N        0.53987    0.08074    0.63145    1.000
    Si3156   Si       0.57335    0.22593    0.70280    1.000
    N3157    N        0.57296    0.14776    0.62853    1.000
    N3158    N        0.53034    0.23534    0.70166    1.000
    N3159    N        0.54583    0.13692    0.69057    1.000
    Si3160   Si       0.55627    0.16796    0.66180    1.000
    Si3161   Si       0.55095    0.11904    0.78229    1.000
    N3162    N        0.53399    0.08819    0.80850    1.000
    N3163    N        0.54525    0.05669    0.86212    1.000
    Si3164   Si       0.57145    0.08578    0.84040    1.000
    Si3165   Si       0.56757    0.14606    0.85251    1.000
    N3166    N        0.54299    0.16390    0.78026    1.000
    N3167    N        0.52750    0.16240    0.85431    1.000
    N3168    N        0.56921    0.22602    0.80737    1.000
    Si3169   Si       0.57477    0.19210    0.78022    1.000
    Si3170   Si       0.54207    0.08048    0.89885    1.000
    N3171    N        0.55867    0.06728    0.93464    1.000
    Si3172   Si       0.54695    0.06292    0.97578    1.000
    N3173    N        0.56912    0.11239    0.88208    1.000
    N3174    N        0.51901    0.03262    0.98283    1.000
    N3175    N        0.54191    0.10062    0.99730    1.000
    Si3176   Si       0.53784    0.13228    0.97021    1.000
    Si3177   Si       0.54569    0.22801    0.97107    1.000
    Si3178   Si       0.55126    0.25601    0.90453    1.000
    N3179    N        0.54239    0.22957    0.87121    1.000
    N3180    N        0.57104    0.13428    0.94502    1.000
    N3181    N        0.54806    0.32951    0.02008    1.000
    Si3182   Si       0.55620    0.35189    0.11168    1.000
    N3183    N        0.52473    0.36230    0.08426    1.000
    Si3184   Si       0.52075    0.33141    0.05237    1.000
    N3185    N        0.57031    0.46104    0.06685    1.000
    Si3186   Si       0.56408    0.48940    0.09958    1.000
    N3187    N        0.52497    0.41384    0.02517    1.000
    Si3188   Si       0.53206    0.45153    0.04501    1.000
    N3189    N        0.53148    0.48604    0.01952    1.000
    Si3190   Si       0.56174    0.39963    0.00765    1.000
    N3191    N        0.55005    0.27930    0.12186    1.000
    N3192    N        0.54051    0.31696    0.20871    1.000
    N3193    N        0.53660    0.34002    0.14916    1.000
    Si3194   Si       0.54461    0.29920    0.16228    1.000
    Si3195   Si       0.52812    0.28852    0.24145    1.000
    N3196    N        0.52393    0.39007    0.19195    1.000
    N3197    N        0.57230    0.50422    0.18137    1.000
    N3198    N        0.57181    0.43416    0.17501    1.000
    N3199    N        0.52395    0.46138    0.20542    1.000
    N3200    N        0.53399    0.47639    0.12863    1.000
    Si3201   Si       0.52811    0.42127    0.22290    1.000
    Si3202   Si       0.56302    0.39163    0.16999    1.000
    Si3203   Si       0.54649    0.46927    0.16984    1.000
    Si3204   Si       0.56504    0.31004    0.33791    1.000
    N3205    N        0.52093    0.37577    0.30804    1.000
    N3206    N        0.55773    0.26175    0.25735    1.000
    N3207    N        0.52065    0.31245    0.33656    1.000
    Si3208   Si       0.55649    0.38223    0.33221    1.000
    N3209    N        0.57590    0.31547    0.29683    1.000
    Si3210   Si       0.56399    0.43870    0.28913    1.000
    N3211    N        0.52467    0.44252    0.30389    1.000
    N3212    N        0.54433    0.40095    0.36854    1.000
    N3213    N        0.56387    0.42098    0.24752    1.000
    N3214    N        0.56380    0.36447    0.42459    1.000
    N3215    N        0.54133    0.30967    0.46816    1.000
    Si3216   Si       0.55282    0.32292    0.42813    1.000
    N3217    N        0.52159    0.46882    0.37019    1.000
    N3218    N        0.52373    0.42400    0.42607    1.000
    Si3219   Si       0.52438    0.48655    0.41072    1.000
    N3220    N        0.55595    0.39229    0.49129    1.000
    N3221    N        0.56663    0.48330    0.42118    1.000
    Si3222   Si       0.55582    0.40019    0.44521    1.000
    Si3223   Si       0.51442    0.42851    0.38320    1.000
    N3224    N        0.55741    0.33790    0.54058    1.000
    N3225    N        0.55667    0.27327    0.52244    1.000
    Si3226   Si       0.55996    0.27451    0.57164    1.000
    Si3227   Si       0.56468    0.31209    0.50516    1.000
    N3228    N        0.54755    0.29290    0.61035    1.000
    N3229    N        0.54423    0.43048    0.55580    1.000
    Si3230   Si       0.52762    0.40755    0.52285    1.000
    N3231    N        0.53232    0.50086    0.56859    1.000
    Si3232   Si       0.51768    0.45881    0.57420    1.000
    Si3233   Si       0.56694    0.37106    0.67674    1.000
    N3234    N        0.56338    0.32824    0.67044    1.000
    Si3235   Si       0.52101    0.31749    0.67739    1.000
    N3236    N        0.51716    0.29912    0.71698    1.000
    N3237    N        0.55104    0.45861    0.66986    1.000
    Si3238   Si       0.55231    0.43206    0.63657    1.000
    Si3239   Si       0.55304    0.44076    0.70758    1.000
    N3240    N        0.53771    0.39424    0.65412    1.000
    Si3241   Si       0.53354    0.50128    0.66840    1.000
    N3242    N        0.57243    0.40015    0.71149    1.000
    N3243    N        0.51806    0.43339    0.72985    1.000
    N3244    N        0.53273    0.31678    0.79080    1.000
    N3245    N        0.56759    0.35581    0.83833    1.000
    Si3246   Si       0.55437    0.26703    0.79276    1.000
    N3247    N        0.57365    0.28425    0.75707    1.000
    Si3248   Si       0.54256    0.32065    0.74774    1.000
    Si3249   Si       0.57370    0.33028    0.80260    1.000
    N3250    N        0.57423    0.34860    0.75459    1.000
    N3251    N        0.57909    0.28990    0.82138    1.000
    Si3252   Si       0.55044    0.38574    0.74641    1.000
    N3253    N        0.52740    0.40154    0.85624    1.000
    N3254    N        0.53933    0.47831    0.78486    1.000
    N3255    N        0.54523    0.40627    0.78550    1.000
    Si3256   Si       0.55809    0.40016    0.82634    1.000
    Si3257   Si       0.53985    0.48851    0.82850    1.000
    N3258    N        0.56907    0.45990    0.84538    1.000
    Si3259   Si       0.57945    0.48627    0.76624    1.000
    Si3260   Si       0.52076    0.44040    0.77500    1.000
    Si3261   Si       0.54084    0.36181    0.87212    1.000
    N3262    N        0.53740    0.26392    0.99552    1.000
    N3263    N        0.56801    0.36126    0.90589    1.000
    Si3264   Si       0.56705    0.32331    0.92564    1.000
    Si3265   Si       0.54955    0.30588    0.98511    1.000
    N3266    N        0.52855    0.32350    0.94787    1.000
    N3267    N        0.56643    0.29377    0.89493    1.000
    Si3268   Si       0.51885    0.36734    0.94838    1.000
    Si3269   Si       0.57251    0.45482    0.88859    1.000
    N3270    N        0.52731    0.45297    0.89665    1.000
    Si3271   Si       0.52414    0.48546    0.97533    1.000
    N3272    N        0.56219    0.49158    0.95197    1.000
    N3273    N        0.55481    0.38563    0.96667    1.000
    Si3274   Si       0.52896    0.55796    0.11167    1.000
    N3275    N        0.54153    0.52582    0.08594    1.000
    Si3276   Si       0.53423    0.52328    0.04219    1.000
    N3277    N        0.56285    0.54912    0.01909    1.000
    N3278    N        0.57169    0.61735    0.00007    1.000
    N3279    N        0.53297    0.63721    0.05941    1.000
    N3280    N        0.53469    0.70699    0.06718    1.000
    Si3281   Si       0.53517    0.66890    0.08851    1.000
    Si3282   Si       0.57202    0.63759    0.03820    1.000
    N3283    N        0.57464    0.65584    0.10758    1.000
    Si3284   Si       0.57120    0.75189    0.99750    1.000
    N3285    N        0.56010    0.57567    0.20343    1.000
    N3286    N        0.55917    0.58541    0.12781    1.000
    Si3287   Si       0.55493    0.53181    0.21019    1.000
    Si3288   Si       0.53960    0.59051    0.24199    1.000
    Si3289   Si       0.53819    0.58445    0.16752    1.000
    N3290    N        0.51854    0.54664    0.15391    1.000
    Si3291   Si       0.52215    0.65493    0.16174    1.000
    N3292    N        0.55206    0.63171    0.24330    1.000
    N3293    N        0.53603    0.75438    0.21157    1.000
    N3294    N        0.56214    0.65023    0.17451    1.000
    N3295    N        0.53597    0.59829    0.34594    1.000
    N3296    N        0.53433    0.57397    0.28243    1.000
    Si3297   Si       0.56189    0.58227    0.31548    1.000
    Si3298   Si       0.56683    0.51370    0.29262    1.000
    N3299    N        0.52938    0.51343    0.31283    1.000
    N3300    N        0.57235    0.52286    0.25016    1.000
    Si3301   Si       0.52406    0.64168    0.33730    1.000
    Si3302   Si       0.53292    0.66321    0.26666    1.000
    N3303    N        0.56073    0.66276    0.34673    1.000
    N3304    N        0.52701    0.73250    0.32539    1.000
    Si3305   Si       0.56593    0.74688    0.31239    1.000
    Si3306   Si       0.53275    0.73762    0.25073    1.000
    N3307    N        0.57176    0.73955    0.26887    1.000
    N3308    N        0.57311    0.67218    0.28338    1.000
    Si3309   Si       0.54811    0.59798    0.38798    1.000
    N3310    N        0.52654    0.52911    0.40568    1.000
    Si3311   Si       0.57326    0.52594    0.40913    1.000
    N3312    N        0.57059    0.63119    0.40862    1.000
    N3313    N        0.51911    0.68752    0.46816    1.000
    Si3314   Si       0.56731    0.67155    0.38920    1.000
    N3315    N        0.53475    0.70076    0.39666    1.000
    N3316    N        0.53751    0.75182    0.44658    1.000
    Si3317   Si       0.53872    0.71072    0.43756    1.000
    Si3318   Si       0.55737    0.69066    0.48912    1.000
    Si3319   Si       0.55776    0.56324    0.54967    1.000
    N3320    N        0.55085    0.54017    0.51338    1.000
    Si3321   Si       0.56402    0.61435    0.50296    1.000
    Si3322   Si       0.56510    0.51061    0.59532    1.000
    N3323    N        0.52092    0.60071    0.50437    1.000
    N3324    N        0.52031    0.56770    0.56902    1.000
    N3325    N        0.53385    0.63048    0.60602    1.000
    Si3326   Si       0.55844    0.72929    0.58019    1.000
    N3327    N        0.53388    0.69634    0.57127    1.000
    N3328    N        0.56805    0.73102    0.50826    1.000
    N3329    N        0.57665    0.65544    0.50362    1.000
    N3330    N        0.56342    0.58956    0.72100    1.000
    Si3331   Si       0.56241    0.56824    0.68274    1.000
    N3332    N        0.52846    0.54059    0.68751    1.000
    N3333    N        0.56190    0.51672    0.63810    1.000
    N3334    N        0.56844    0.72807    0.62261    1.000
    Si3335   Si       0.56413    0.63178    0.63579    1.000
    N3336    N        0.54662    0.65829    0.66547    1.000
    Si3337   Si       0.55572    0.73557    0.66458    1.000
    N3338    N        0.55009    0.69167    0.72918    1.000
    N3339    N        0.51711    0.72027    0.67032    1.000
    N3340    N        0.54484    0.58318    0.79560    1.000
    N3341    N        0.55414    0.53050    0.83382    1.000
    Si3342   Si       0.53820    0.59284    0.75281    1.000
    Si3343   Si       0.54124    0.55436    0.87018    1.000
    Si3344   Si       0.57674    0.55431    0.80495    1.000
    Si3345   Si       0.51829    0.60458    0.82142    1.000
    N3346    N        0.51604    0.59055    0.86423    1.000
    N3347    N        0.52945    0.63702    0.75610    1.000
    Si3348   Si       0.55969    0.64940    0.78321    1.000
    N3349    N        0.53861    0.64446    0.82139    1.000
    Si3350   Si       0.54498    0.68593    0.82866    1.000
    N3351    N        0.56715    0.69115    0.79234    1.000
    Si3352   Si       0.57356    0.71460    0.75596    1.000
    N3353    N        0.56943    0.62732    0.89819    1.000
    N3354    N        0.55298    0.57339    0.94865    1.000
    N3355    N        0.52869    0.52299    0.90080    1.000
    Si3356   Si       0.54961    0.58047    0.99043    1.000
    Si3357   Si       0.57593    0.52046    0.92167    1.000
    Si3358   Si       0.55968    0.71028    0.94969    1.000
    N3359    N        0.55939    0.69034    0.86944    1.000
    Si3360   Si       0.54195    0.66146    0.89761    1.000
    N3361    N        0.53614    0.67500    0.93852    1.000
    N3362    N        0.53480    0.73762    0.97060    1.000
    Si3363   Si       0.53176    0.80218    0.05420    1.000
    N3364    N        0.53902    0.78187    0.01537    1.000
    N3365    N        0.57001    0.81388    0.06676    1.000
    N3366    N        0.55364    0.88204    0.09308    1.000
    Si3367   Si       0.51699    0.95692    0.10037    1.000
    Si3368   Si       0.52583    0.89582    0.06293    1.000
    N3369    N        0.55113    0.88884    0.02725    1.000
    N3370    N        0.52798    0.99748    0.09741    1.000
    Si3371   Si       0.54277    0.99993    0.00053    1.000
    N3372    N        0.51709    0.93934    0.06155    1.000
    N3373    N        0.55580    0.87368    0.16252    1.000
    N3374    N        0.53328    0.81092    0.13359    1.000
    Si3375   Si       0.56620    0.83336    0.15061    1.000
    Si3376   Si       0.57041    0.78210    0.21233    1.000
    N3377    N        0.51848    0.85365    0.22296    1.000
    N3378    N        0.53988    0.93972    0.13458    1.000
    N3379    N        0.53904    0.92735    0.20896    1.000
    Si3380   Si       0.53085    0.88558    0.19758    1.000
    Si3381   Si       0.56315    0.90048    0.13108    1.000
    Si3382   Si       0.56667    0.92387    0.24214    1.000
    N3383    N        0.55294    0.85559    0.29357    1.000
    Si3384   Si       0.55421    0.83041    0.32883    1.000
    Si3385   Si       0.55287    0.84843    0.24915    1.000
    N3386    N        0.57136    0.79191    0.31348    1.000
    N3387    N        0.57328    0.80933    0.24675    1.000
    Si3388   Si       0.55401    0.89668    0.30601    1.000
    N3389    N        0.52981    0.89501    0.34155    1.000
    N3390    N        0.53485    0.92311    0.27697    1.000
    N3391    N        0.55822    0.98241    0.30535    1.000
    Si3392   Si       0.52548    0.96595    0.28590    1.000
    N3393    N        0.51800    0.98325    0.24765    1.000
    N3394    N        0.56792    0.95055    0.36775    1.000
    N3395    N        0.54955    0.81453    0.41838    1.000
    Si3396   Si       0.54157    0.85564    0.42763    1.000
    N3397    N        0.55327    0.85946    0.47029    1.000
    Si3398   Si       0.55508    0.76420    0.48310    1.000
    Si3399   Si       0.52103    0.78340    0.42252    1.000
    Si3400   Si       0.57380    0.97429    0.40167    1.000
    N3401    N        0.52391    0.94771    0.48038    1.000
    Si3402   Si       0.55796    0.97410    0.47182    1.000
    N3403    N        0.53372    0.98677    0.41222    1.000
    Si3404   Si       0.54328    0.91421    0.37782    1.000
    N3405    N        0.56346    0.88582    0.40297    1.000
    Si3406   Si       0.55828    0.86820    0.55990    1.000
    N3407    N        0.54898    0.77280    0.57901    1.000
    N3408    N        0.53762    0.83592    0.54159    1.000
    Si3409   Si       0.52595    0.85757    0.50531    1.000
    Si3410   Si       0.52581    0.79413    0.54927    1.000
    Si3411   Si       0.56604    0.78215    0.61894    1.000
    N3412    N        0.52145    0.78261    0.50584    1.000
    N3413    N        0.56477    0.89371    0.52328    1.000
    N3414    N        0.52465    0.95560    0.54887    1.000
    N3415    N        0.53584    0.89244    0.58463    1.000
    Si3416   Si       0.55265    0.98848    0.54509    1.000
    Si3417   Si       0.53451    0.92546    0.51739    1.000
    Si3418   Si       0.52325    0.93226    0.58806    1.000
    Si3419   Si       0.54914    0.99559    0.61682    1.000
    N3420    N        0.57621    0.99487    0.58171    1.000
    N3421    N        0.56652    0.82681    0.62536    1.000
    N3422    N        0.52796    0.84287    0.68282    1.000
    N3423    N        0.55153    0.77703    0.66389    1.000
    Si3424   Si       0.56841    0.84818    0.66306    1.000
    N3425    N        0.56360    0.87418    0.73131    1.000
    Si3426   Si       0.52134    0.80064    0.68403    1.000
    Si3427   Si       0.55277    0.92760    0.65644    1.000
    Si3428   Si       0.52681    0.87799    0.70696    1.000
    N3429    N        0.57251    0.95741    0.68140    1.000
    N3430    N        0.52608    0.00143    0.72179    1.000
    N3431    N        0.54282    0.95254    0.62155    1.000
    Si3432   Si       0.55888    0.97339    0.72054    1.000
    N3433    N        0.55209    0.93648    0.74252    1.000
    Si3434   Si       0.53104    0.78329    0.76739    1.000
    N3435    N        0.56204    0.84617    0.84459    1.000
    Si3436   Si       0.56593    0.81265    0.81367    1.000
    N3437    N        0.52617    0.80295    0.80753    1.000
    Si3438   Si       0.54137    0.87541    0.86784    1.000
    N3439    N        0.56616    0.75750    0.76280    1.000
    N3440    N        0.53608    0.87985    0.79565    1.000
    Si3441   Si       0.53172    0.97922    0.81808    1.000
    N3442    N        0.54055    0.97347    0.86190    1.000
    N3443    N        0.56159    0.90940    0.85014    1.000
    N3444    N        0.57047    0.98114    0.80042    1.000
    Si3445   Si       0.52330    0.91368    0.76903    1.000
    Si3446   Si       0.57443    0.94630    0.86909    1.000
    N3447    N        0.56406    0.80771    0.90809    1.000
    N3448    N        0.53220    0.84613    0.97108    1.000
    Si3449   Si       0.53599    0.83616    0.92800    1.000
    N3450    N        0.54853    0.87422    0.91013    1.000
    Si3451   Si       0.55165    0.88213    0.98442    1.000
    N3452    N        0.52357    0.97819    0.93400    1.000
    N3453    N        0.53339    0.91503    0.96372    1.000
    Si3454   Si       0.56766    0.97652    0.93621    1.000
    N3455    N        0.57540    0.94068    0.91138    1.000
    Si3456   Si       0.54097    0.91590    0.92110    1.000
    N3457    N        0.57169    0.97682    0.98010    1.000
    Si3458   Si       0.60509    0.04092    0.02369    1.000
    N3459    N        0.59710    0.07408    0.05230    1.000
    N3460    N        0.60105    0.12393    0.08709    1.000
    Si3461   Si       0.62850    0.10175    0.06383    1.000
    Si3462   Si       0.59752    0.16417    0.09610    1.000
    N3463    N        0.63175    0.19021    0.09961    1.000
    N3464    N        0.63947    0.19513    0.03213    1.000
    N3465    N        0.61449    0.24667    0.99749    1.000
    Si3466   Si       0.61110    0.20408    0.99779    1.000
    N3467    N        0.59865    0.11579    0.20268    1.000
    Si3468   Si       0.62081    0.01232    0.17772    1.000
    Si3469   Si       0.62182    0.08215    0.18877    1.000
    N3470    N        0.59815    0.05081    0.17136    1.000
    Si3471   Si       0.62057    0.15431    0.20349    1.000
    N3472    N        0.57854    0.16880    0.13731    1.000
    Si3473   Si       0.58163    0.20213    0.16589    1.000
    N3474    N        0.61443    0.22722    0.15663    1.000
    N3475    N        0.59160    0.18518    0.20541    1.000
    N3476    N        0.58788    0.04399    0.26377    1.000
    Si3477   Si       0.61476    0.01547    0.35655    1.000
    Si3478   Si       0.62373    0.03100    0.24604    1.000
    N3479    N        0.57966    0.03660    0.33901    1.000
    N3480    N        0.60794    0.12817    0.33046    1.000
    Si3481   Si       0.59995    0.24497    0.32746    1.000
    Si3482   Si       0.61913    0.10495    0.43340    1.000
    N3483    N        0.62332    0.08396    0.39432    1.000
    N3484    N        0.62953    0.01037    0.47455    1.000
    N3485    N        0.57743    0.10502    0.44152    1.000
    N3486    N        0.58411    0.18235    0.44504    1.000
    N3487    N        0.59811    0.25086    0.46740    1.000
    Si3488   Si       0.61101    0.21500    0.44469    1.000
    N3489    N        0.61906    0.23012    0.40491    1.000
    Si3490   Si       0.58434    0.25904    0.39424    1.000
    Si3491   Si       0.58886    0.10782    0.53154    1.000
    N3492    N        0.62988    0.03098    0.61370    1.000
    N3493    N        0.62985    0.01501    0.54392    1.000
    N3494    N        0.63178    0.10072    0.53388    1.000
    N3495    N        0.63448    0.11312    0.60382    1.000
    N3496    N        0.58812    0.15141    0.51557    1.000
    Si3497   Si       0.61085    0.21923    0.57043    1.000
    N3498    N        0.61033    0.22212    0.52685    1.000
    N3499    N        0.60993    0.17616    0.57881    1.000
    Si3500   Si       0.57915    0.24221    0.50390    1.000
    Si3501   Si       0.61460    0.15111    0.61458    1.000
    Si3502   Si       0.57662    0.16038    0.55485    1.000
    N3503    N        0.63360    0.11624    0.71621    1.000
    Si3504   Si       0.61124    0.02206    0.65329    1.000
    N3505    N        0.60550    0.06535    0.66293    1.000
    Si3506   Si       0.63251    0.01015    0.72133    1.000
    N3507    N        0.58339    0.21025    0.74111    1.000
    N3508    N        0.58694    0.19820    0.67413    1.000
    Si3509   Si       0.62915    0.19261    0.67408    1.000
    N3510    N        0.61109    0.06690    0.84092    1.000
    N3511    N        0.60490    0.04865    0.77635    1.000
    Si3512   Si       0.61632    0.08710    0.74939    1.000
    N3513    N        0.58339    0.12402    0.81784    1.000
    N3514    N        0.57566    0.10444    0.75064    1.000
    N3515    N        0.61078    0.24797    0.86371    1.000
    Si3516   Si       0.58067    0.22072    0.84965    1.000
    Si3517   Si       0.62273    0.13843    0.80490    1.000
    N3518    N        0.61525    0.17370    0.78217    1.000
    Si3519   Si       0.62646    0.20202    0.75017    1.000
    N3520    N        0.59234    0.18172    0.86300    1.000
    N3521    N        0.61815    0.07838    0.91764    1.000
    N3522    N        0.58744    0.04869    0.98668    1.000
    Si3523   Si       0.59573    0.04624    0.94335    1.000
    Si3524   Si       0.59609    0.11604    0.91608    1.000
    Si3525   Si       0.63126    0.06763    0.87853    1.000
    N3526    N        0.63213    0.17131    0.97626    1.000
    N3527    N        0.62950    0.14493    0.91031    1.000
    Si3528   Si       0.63316    0.17037    0.87517    1.000
    N3529    N        0.57233    0.23807    0.93880    1.000
    N3530    N        0.61752    0.30559    0.03189    1.000
    Si3531   Si       0.58726    0.33648    0.03929    1.000
    Si3532   Si       0.58520    0.28646    0.09562    1.000
    Si3533   Si       0.61640    0.26232    0.03819    1.000
    N3534    N        0.59192    0.37731    0.02997    1.000
    N3535    N        0.57806    0.32745    0.08194    1.000
    N3536    N        0.58001    0.25596    0.06315    1.000
    N3537    N        0.62402    0.28363    0.11722    1.000
    Si3538   Si       0.59708    0.46118    0.03468    1.000
    N3539    N        0.61074    0.50245    0.02658    1.000
    Si3540   Si       0.63104    0.38997    0.04334    1.000
    N3541    N        0.63344    0.43388    0.03608    1.000
    N3542    N        0.57689    0.44045    0.99969    1.000
    Si3543   Si       0.58629    0.32596    0.20591    1.000
    N3544    N        0.58682    0.29606    0.17302    1.000
    N3545    N        0.58699    0.36993    0.19944    1.000
    Si3546   Si       0.61734    0.27060    0.15764    1.000
    N3547    N        0.61228    0.30629    0.23533    1.000
    N3548    N        0.58261    0.38020    0.13152    1.000
    Si3549   Si       0.59947    0.39944    0.22971    1.000
    N3550    N        0.63028    0.43257    0.13939    1.000
    N3551    N        0.63487    0.48564    0.17363    1.000
    N3552    N        0.62471    0.42982    0.21306    1.000
    Si3553   Si       0.62440    0.39102    0.12821    1.000
    Si3554   Si       0.61178    0.44846    0.17537    1.000
    Si3555   Si       0.59213    0.28620    0.26819    1.000
    N3556    N        0.58216    0.27496    0.35338    1.000
    N3557    N        0.61733    0.25974    0.29043    1.000
    N3558    N        0.57582    0.34962    0.35367    1.000
    N3559    N        0.62960    0.37934    0.25597    1.000
    N3560    N        0.58589    0.40421    0.30752    1.000
    N3561    N        0.58394    0.47470    0.29896    1.000
    Si3562   Si       0.62624    0.39987    0.29438    1.000
    Si3563   Si       0.62709    0.47434    0.30178    1.000
    Si3564   Si       0.60979    0.29123    0.45341    1.000
    N3565    N        0.58503    0.29593    0.41678    1.000
    N3566    N        0.60522    0.31839    0.48812    1.000
    Si3567   Si       0.57866    0.37789    0.38655    1.000
    N3568    N        0.63073    0.45818    0.41214    1.000
    N3569    N        0.61906    0.39059    0.38630    1.000
    Si3570   Si       0.62774    0.41673    0.41954    1.000
    Si3571   Si       0.59891    0.46464    0.44084    1.000
    N3572    N        0.63063    0.38672    0.49371    1.000
    N3573    N        0.59347    0.42188    0.45084    1.000
    N3574    N        0.59830    0.48165    0.48322    1.000
    Si3575   Si       0.59201    0.33911    0.56748    1.000
    N3576    N        0.60089    0.29573    0.56933    1.000
    N3577    N        0.58753    0.34857    0.61007    1.000
    N3578    N        0.63039    0.35071    0.55090    1.000
    Si3579   Si       0.63485    0.34639    0.50697    1.000
    Si3580   Si       0.63169    0.28409    0.59591    1.000
    N3581    N        0.60247    0.43514    0.53097    1.000
    N3582    N        0.59242    0.47781    0.59175    1.000
    Si3583   Si       0.62634    0.46459    0.51232    1.000
    Si3584   Si       0.58424    0.44002    0.56922    1.000
    N3585    N        0.59084    0.42274    0.61589    1.000
    Si3586   Si       0.59431    0.40920    0.49415    1.000
    N3587    N        0.61078    0.28237    0.63314    1.000
    Si3588   Si       0.61284    0.27160    0.73822    1.000
    Si3589   Si       0.57896    0.31159    0.63324    1.000
    N3590    N        0.63277    0.31028    0.73565    1.000
    N3591    N        0.60997    0.37985    0.66741    1.000
    Si3592   Si       0.61044    0.38183    0.62387    1.000
    Si3593   Si       0.63300    0.26546    0.66871    1.000
    N3594    N        0.60259    0.25936    0.69745    1.000
    Si3595   Si       0.61629    0.39745    0.70634    1.000
    Si3596   Si       0.61461    0.47527    0.70411    1.000
    N3597    N        0.57880    0.47029    0.72641    1.000
    Si3598   Si       0.61735    0.46141    0.62341    1.000
    N3599    N        0.61767    0.48181    0.66099    1.000
    N3600    N        0.63472    0.43764    0.70677    1.000
    Si3601   Si       0.61333    0.36468    0.83987    1.000
    N3602    N        0.61799    0.34506    0.79915    1.000
    Si3603   Si       0.59677    0.28932    0.86067    1.000
    N3604    N        0.62201    0.32412    0.86087    1.000
    Si3605   Si       0.61721    0.34233    0.75712    1.000
    Si3606   Si       0.60865    0.44843    0.82994    1.000
    N3607    N        0.60770    0.46499    0.78930    1.000
    N3608    N        0.60097    0.40606    0.83218    1.000
    N3609    N        0.58897    0.30427    0.96038    1.000
    Si3610   Si       0.60460    0.26338    0.95876    1.000
    N3611    N        0.62594    0.37633    0.94244    1.000
    N3612    N        0.59511    0.49218    0.89417    1.000
    Si3613   Si       0.58600    0.38966    0.93342    1.000
    N3614    N        0.58388    0.43141    0.92382    1.000
    N3615    N        0.62788    0.46470    0.96582    1.000
    Si3616   Si       0.58639    0.45531    0.95990    1.000
    Si3617   Si       0.63502    0.49542    0.88092    1.000
    Si3618   Si       0.60511    0.54750    0.02863    1.000
    N3619    N        0.59532    0.61191    0.06335    1.000
    Si3620   Si       0.58339    0.61350    0.10521    1.000
    N3621    N        0.62833    0.57295    0.00157    1.000
    N3622    N        0.62522    0.60427    0.11708    1.000
    N3623    N        0.60352    0.50944    0.11708    1.000
    Si3624   Si       0.61824    0.68835    0.00763    1.000
    N3625    N        0.59925    0.71687    0.09283    1.000
    Si3626   Si       0.61220    0.67868    0.11057    1.000
    N3627    N        0.58929    0.67884    0.03666    1.000
    N3628    N        0.58919    0.75098    0.03664    1.000
    Si3629   Si       0.62753    0.74556    0.10387    1.000
    N3630    N        0.63144    0.64815    0.99701    1.000
    Si3631   Si       0.57621    0.71336    0.05744    1.000
    Si3632   Si       0.60336    0.58439    0.20272    1.000
    N3633    N        0.62060    0.55707    0.17154    1.000
    Si3634   Si       0.60839    0.51674    0.16161    1.000
    N3635    N        0.61827    0.62341    0.19350    1.000
    N3636    N        0.61897    0.57387    0.24035    1.000
    N3637    N        0.62507    0.75590    0.14399    1.000
    Si3638   Si       0.59178    0.65432    0.24700    1.000
    N3639    N        0.60609    0.75563    0.21228    1.000
    Si3640   Si       0.60223    0.72385    0.24245    1.000
    N3641    N        0.59776    0.68570    0.21829    1.000
    Si3642   Si       0.60185    0.66283    0.18259    1.000
    N3643    N        0.62764    0.68162    0.15046    1.000
    N3644    N        0.59200    0.54930    0.30442    1.000
    Si3645   Si       0.61038    0.53962    0.26370    1.000
    Si3646   Si       0.62357    0.57913    0.31932    1.000
    N3647    N        0.59387    0.61224    0.31562    1.000
    N3648    N        0.59540    0.73594    0.34430    1.000
    Si3649   Si       0.59113    0.65398    0.31692    1.000
    Si3650   Si       0.62364    0.70355    0.35515    1.000
    N3651    N        0.62696    0.64152    0.26482    1.000
    N3652    N        0.62596    0.67818    0.32269    1.000
    N3653    N        0.58069    0.54056    0.44975    1.000
    Si3654   Si       0.60535    0.62210    0.43519    1.000
    N3655    N        0.58760    0.60265    0.47002    1.000
    Si3656   Si       0.61830    0.56515    0.39430    1.000
    N3657    N        0.61457    0.52071    0.39308    1.000
    Si3658   Si       0.61014    0.56769    0.46321    1.000
    Si3659   Si       0.58174    0.52067    0.49057    1.000
    N3660    N        0.63236    0.58585    0.43072    1.000
    N3661    N        0.57632    0.56671    0.38755    1.000
    Si3662   Si       0.61809    0.69232    0.43584    1.000
    N3663    N        0.62695    0.65472    0.45445    1.000
    N3664    N        0.60657    0.68912    0.39082    1.000
    N3665    N        0.57899    0.69896    0.44984    1.000
    N3666    N        0.58420    0.59536    0.53750    1.000
    Si3667   Si       0.62525    0.59729    0.54812    1.000
    Si3668   Si       0.59901    0.57721    0.61487    1.000
    N3669    N        0.62533    0.60641    0.59289    1.000
    N3670    N        0.57953    0.55166    0.58548    1.000
    N3671    N        0.62177    0.54334    0.49691    1.000
    N3672    N        0.60102    0.72798    0.56744    1.000
    Si3673   Si       0.60727    0.72980    0.52577    1.000
    Si3674   Si       0.62642    0.74941    0.59439    1.000
    Si3675   Si       0.62019    0.65261    0.49795    1.000
    N3676    N        0.62903    0.69563    0.51023    1.000
    N3677    N        0.62964    0.57787    0.74029    1.000
    N3678    N        0.59608    0.54020    0.69082    1.000
    Si3679   Si       0.60273    0.61141    0.73300    1.000
    Si3680   Si       0.61051    0.53776    0.73362    1.000
    Si3681   Si       0.60273    0.52089    0.65384    1.000
    N3682    N        0.62831    0.54653    0.62615    1.000
    N3683    N        0.57534    0.59111    0.64673    1.000
    N3684    N        0.59040    0.71274    0.67858    1.000
    Si3685   Si       0.60022    0.70089    0.63662    1.000
    N3686    N        0.60057    0.65850    0.63049    1.000
    N3687    N        0.61629    0.71487    0.74258    1.000
    Si3688   Si       0.62693    0.72232    0.70073    1.000
    N3689    N        0.60665    0.64406    0.70478    1.000
    Si3690   Si       0.57274    0.67426    0.69730    1.000
    N3691    N        0.60608    0.57840    0.82540    1.000
    Si3692   Si       0.61870    0.61659    0.80708    1.000
    N3693    N        0.58770    0.53060    0.76994    1.000
    Si3694   Si       0.61649    0.56851    0.86574    1.000
    N3695    N        0.59376    0.62757    0.77224    1.000
    N3696    N        0.61551    0.65029    0.83654    1.000
    N3697    N        0.61602    0.72392    0.85023    1.000
    N3698    N        0.61338    0.53645    0.94004    1.000
    N3699    N        0.61856    0.60119    0.94517    1.000
    Si3700   Si       0.61218    0.61091    0.98586    1.000
    N3701    N        0.63174    0.60515    0.88094    1.000
    N3702    N        0.58077    0.56154    0.89091    1.000
    Si3703   Si       0.58141    0.59169    0.92111    1.000
    N3704    N        0.57393    0.73367    0.91530    1.000
    N3705    N        0.61516    0.67663    0.89775    1.000
    N3706    N        0.59358    0.71156    0.97974    1.000
    Si3707   Si       0.59395    0.71082    0.88526    1.000
    Si3708   Si       0.60512    0.64032    0.87788    1.000
    Si3709   Si       0.60147    0.78972    0.04999    1.000
    N3710    N        0.61316    0.87087    0.05630    1.000
    N3711    N        0.62409    0.81356    0.02115    1.000
    Si3712   Si       0.58484    0.85219    0.08469    1.000
    N3713    N        0.60737    0.93966    0.03267    1.000
    Si3714   Si       0.59336    0.89715    0.02771    1.000
    N3715    N        0.59585    0.98034    0.08826    1.000
    N3716    N        0.62516    0.99898    0.02100    1.000
    Si3717   Si       0.62382    0.97096    0.05692    1.000
    Si3718   Si       0.60853    0.96529    0.99774    1.000
    N3719    N        0.57686    0.88184    0.23166    1.000
    N3720    N        0.60083    0.84333    0.12412    1.000
    Si3721   Si       0.61968    0.77872    0.17903    1.000
    N3722    N        0.58413    0.80572    0.17871    1.000
    N3723    N        0.62997    0.87326    0.17730    1.000
    N3724    N        0.62154    0.99781    0.22078    1.000
    N3725    N        0.60041    0.92022    0.13060    1.000
    N3726    N        0.61593    0.92941    0.19760    1.000
    Si3727   Si       0.63128    0.95638    0.22862    1.000
    N3728    N        0.59780    0.98529    0.15547    1.000
    Si3729   Si       0.58630    0.95973    0.12521    1.000
    Si3730   Si       0.61820    0.88629    0.21608    1.000
    Si3731   Si       0.63249    0.91591    0.16019    1.000
    Si3732   Si       0.59856    0.80136    0.28240    1.000
    Si3733   Si       0.62528    0.83260    0.33745    1.000
    N3734    N        0.58668    0.84420    0.35629    1.000
    N3735    N        0.62389    0.83595    0.29373    1.000
    Si3736   Si       0.62254    0.76108    0.36841    1.000
    N3737    N        0.59084    0.91551    0.31585    1.000
    N3738    N        0.62302    0.97762    0.33563    1.000
    Si3739   Si       0.62244    0.91333    0.28589    1.000
    N3740    N        0.60178    0.94224    0.25901    1.000
    Si3741   Si       0.58526    0.95584    0.32722    1.000
    N3742    N        0.61562    0.84218    0.42278    1.000
    Si3743   Si       0.59120    0.80564    0.42911    1.000
    N3744    N        0.61536    0.77386    0.40868    1.000
    Si3745   Si       0.60584    0.87032    0.38915    1.000
    N3746    N        0.58703    0.79042    0.46979    1.000
    Si3747   Si       0.58896    0.87350    0.49228    1.000
    N3748    N        0.60726    0.00233    0.39719    1.000
    Si3749   Si       0.61419    0.92964    0.44119    1.000
    Si3750   Si       0.63279    0.99950    0.43233    1.000
    N3751    N        0.62311    0.91109    0.40335    1.000
    N3752    N        0.61595    0.90656    0.47646    1.000
    N3753    N        0.58363    0.95755    0.44090    1.000
    N3754    N        0.59603    0.85484    0.57070    1.000
    Si3755   Si       0.60561    0.82934    0.60332    1.000
    N3756    N        0.60838    0.78676    0.60620    1.000
    N3757    N        0.61575    0.84106    0.50609    1.000
    N3758    N        0.62946    0.76785    0.52075    1.000
    Si3759   Si       0.63221    0.85460    0.54553    1.000
    Si3760   Si       0.62151    0.80078    0.49351    1.000
    Si3761   Si       0.61786    0.99156    0.51026    1.000
    Si3762   Si       0.61885    0.00028    0.58394    1.000
    N3763    N        0.57842    0.97480    0.51129    1.000
    N3764    N        0.62543    0.80036    0.73904    1.000
    Si3765   Si       0.58976    0.83964    0.73682    1.000
    N3766    N        0.59155    0.82790    0.69294    1.000
    Si3767   Si       0.62464    0.80082    0.69339    1.000
    N3768    N        0.62495    0.85632    0.63154    1.000
    N3769    N        0.63092    0.99485    0.67999    1.000
    Si3770   Si       0.58710    0.90971    0.74332    1.000
    Si3771   Si       0.62208    0.89173    0.65743    1.000
    N3772    N        0.59376    0.99662    0.73447    1.000
    N3773    N        0.62036    0.92769    0.71959    1.000
    Si3774   Si       0.61511    0.95300    0.68303    1.000
    N3775    N        0.63173    0.93244    0.64882    1.000
    N3776    N        0.57777    0.89229    0.65782    1.000
    N3777    N        0.59120    0.79136    0.84029    1.000
    Si3778   Si       0.60138    0.78127    0.76955    1.000
    N3779    N        0.61676    0.86704    0.81956    1.000
    Si3780   Si       0.62440    0.76361    0.83597    1.000
    N3781    N        0.62901    0.75744    0.79386    1.000
    N3782    N        0.57691    0.81879    0.77206    1.000
    N3783    N        0.62443    0.86530    0.74672    1.000
    Si3784   Si       0.60324    0.95226    0.80494    1.000
    N3785    N        0.61055    0.95172    0.84790    1.000
    N3786    N        0.59732    0.91256    0.78447    1.000
    N3787    N        0.63072    0.97818    0.78561    1.000
    Si3788   Si       0.59632    0.00644    0.77749    1.000
    Si3789   Si       0.63161    0.88707    0.78473    1.000
    Si3790   Si       0.57568    0.88277    0.81797    1.000
    Si3791   Si       0.58481    0.82125    0.87222    1.000
    N3792    N        0.62766    0.83556    0.95550    1.000
    N3793    N        0.62073    0.84137    0.88278    1.000
    Si3794   Si       0.62276    0.80049    0.98052    1.000
    N3795    N        0.58682    0.78061    0.96974    1.000
    N3796    N        0.62761    0.78145    0.91994    1.000
    Si3797   Si       0.58513    0.77417    0.92746    1.000
    Si3798   Si       0.63592    0.87640    0.97184    1.000
    N3799    N        0.59180    0.00899    0.92122    1.000
    N3800    N        0.59791    0.89025    0.98587    1.000
    N3801    N        0.66395    0.08236    0.07696    1.000
    N3802    N        0.65153    0.05238    0.01375    1.000
    Si3803   Si       0.68156    0.05636    0.04523    1.000
    Si3804   Si       0.66292    0.09377    0.00148    1.000
    N3805    N        0.64525    0.12195    0.03026    1.000
    Si3806   Si       0.65157    0.15995    0.01274    1.000
    Si3807   Si       0.65617    0.20988    0.06965    1.000
    N3808    N        0.65022    0.25233    0.06405    1.000
    N3809    N        0.69453    0.15987    0.00551    1.000
    N3810    N        0.66159    0.09375    0.16973    1.000
    N3811    N        0.66198    0.01962    0.17198    1.000
    Si3812   Si       0.68035    0.05661    0.18451    1.000
    N3813    N        0.64329    0.06292    0.22165    1.000
    Si3814   Si       0.68993    0.17638    0.21960    1.000
    N3815    N        0.68017    0.21804    0.21186    1.000
    N3816    N        0.68091    0.21855    0.14353    1.000
    N3817    N        0.65286    0.15475    0.23183    1.000
    N3818    N        0.64458    0.16168    0.16622    1.000
    Si3819   Si       0.64391    0.19737    0.14196    1.000
    Si3820   Si       0.67978    0.24516    0.17886    1.000
    Si3821   Si       0.67786    0.13576    0.16099    1.000
    N3822    N        0.66858    0.10502    0.34503    1.000
    Si3823   Si       0.67408    0.02644    0.31607    1.000
    N3824    N        0.65706    0.03396    0.27585    1.000
    N3825    N        0.64873    0.03906    0.34867    1.000
    Si3826   Si       0.67523    0.06642    0.25202    1.000
    N3827    N        0.68251    0.10085    0.27561    1.000
    Si3828   Si       0.65853    0.07359    0.37310    1.000
    Si3829   Si       0.67360    0.14025    0.26610    1.000
    N3830    N        0.66577    0.16155    0.30191    1.000
    Si3831   Si       0.64772    0.14074    0.33700    1.000
    N3832    N        0.68104    0.22525    0.28420    1.000
    N3833    N        0.64000    0.23636    0.34180    1.000
    Si3834   Si       0.65839    0.25497    0.30565    1.000
    N3835    N        0.65316    0.17233    0.36682    1.000
    N3836    N        0.66407    0.02804    0.42822    1.000
    Si3837   Si       0.66214    0.03885    0.47085    1.000
    N3838    N        0.63790    0.07978    0.46669    1.000
    N3839    N        0.69100    0.21619    0.39095    1.000
    N3840    N        0.64221    0.14070    0.43413    1.000
    Si3841   Si       0.64964    0.21338    0.37721    1.000
    N3842    N        0.64482    0.19953    0.47177    1.000
    Si3843   Si       0.66450    0.16274    0.46188    1.000
    N3844    N        0.67419    0.13925    0.49605    1.000
    Si3845   Si       0.65684    0.10824    0.56664    1.000
    N3846    N        0.67233    0.06958    0.57915    1.000
    Si3847   Si       0.66315    0.04170    0.54438    1.000
    N3848    N        0.67602    0.05722    0.50768    1.000
    Si3849   Si       0.65671    0.10017    0.49964    1.000
    Si3850   Si       0.64468    0.07337    0.61977    1.000
    N3851    N        0.69548    0.01159    0.56053    1.000
    Si3852   Si       0.64833    0.22167    0.50830    1.000
    N3853    N        0.67730    0.20313    0.53258    1.000
    N3854    N        0.64336    0.24421    0.58101    1.000
    Si3855   Si       0.68246    0.22723    0.56942    1.000
    N3856    N        0.68671    0.14002    0.56066    1.000
    N3857    N        0.68972    0.20184    0.60457    1.000
    Si3858   Si       0.68120    0.04778    0.73655    1.000
    N3859    N        0.66605    0.08810    0.65639    1.000
    N3860    N        0.64025    0.05323    0.72022    1.000
    Si3861   Si       0.63574    0.08305    0.68796    1.000
    Si3862   Si       0.67372    0.13045    0.65410    1.000
    N3863    N        0.67003    0.00644    0.74432    1.000
    N3864    N        0.69277    0.14379    0.69059    1.000
    N3865    N        0.63983    0.15907    0.64862    1.000
    Si3866   Si       0.66296    0.14688    0.72361    1.000
    N3867    N        0.64287    0.18414    0.71509    1.000
    N3868    N        0.65188    0.22692    0.66151    1.000
    Si3869   Si       0.69231    0.22345    0.64115    1.000
    N3870    N        0.66388    0.02980    0.81097    1.000
    Si3871   Si       0.67909    0.12205    0.85603    1.000
    Si3872   Si       0.68345    0.11022    0.78143    1.000
    N3873    N        0.64144    0.10124    0.78559    1.000
    Si3874   Si       0.67258    0.01355    0.85091    1.000
    Si3875   Si       0.63497    0.06150    0.80484    1.000
    N3876    N        0.64015    0.24333    0.75621    1.000
    N3877    N        0.64608    0.14435    0.84083    1.000
    N3878    N        0.68752    0.14772    0.75964    1.000
    N3879    N        0.66995    0.08763    0.87912    1.000
    N3880    N        0.64376    0.02567    0.88122    1.000
    N3881    N        0.66050    0.10674    0.96082    1.000
    Si3882   Si       0.65828    0.06882    0.93895    1.000
    N3883    N        0.64194    0.03062    0.95249    1.000
    Si3884   Si       0.65547    0.00878    0.98959    1.000
    Si3885   Si       0.64374    0.24422    0.89178    1.000
    N3886    N        0.69286    0.16773    0.94023    1.000
    N3887    N        0.65888    0.20427    0.88683    1.000
    Si3888   Si       0.65431    0.14810    0.94495    1.000
    N3889    N        0.69411    0.22864    0.98144    1.000
    N3890    N        0.66448    0.32390    0.07707    1.000
    Si3891   Si       0.65967    0.28390    0.09269    1.000
    N3892    N        0.65872    0.36386    0.02646    1.000
    Si3893   Si       0.65842    0.32018    0.03432    1.000
    Si3894   Si       0.67048    0.35848    0.10114    1.000
    N3895    N        0.68847    0.29507    0.01736    1.000
    Si3896   Si       0.69101    0.37475    0.00311    1.000
    N3897    N        0.63820    0.38669    0.08626    1.000
    Si3898   Si       0.66638    0.45730    0.05676    1.000
    N3899    N        0.65664    0.48272    0.09005    1.000
    N3900    N        0.67928    0.47362    0.01960    1.000
    Si3901   Si       0.65269    0.44548    0.99618    1.000
    Si3902   Si       0.67071    0.36825    0.24085    1.000
    Si3903   Si       0.68391    0.35351    0.17177    1.000
    N3904    N        0.65154    0.27739    0.18195    1.000
    Si3905   Si       0.65233    0.30087    0.21876    1.000
    N3906    N        0.66763    0.33992    0.20916    1.000
    N3907    N        0.65806    0.36779    0.14291    1.000
    N3908    N        0.67766    0.28344    0.24823    1.000
    Si3909   Si       0.65121    0.46898    0.13003    1.000
    N3910    N        0.67411    0.47718    0.23042    1.000
    N3911    N        0.69034    0.40694    0.23362    1.000
    N3912    N        0.68720    0.46373    0.15146    1.000
    Si3913   Si       0.65934    0.43690    0.24008    1.000
    Si3914   Si       0.67646    0.48651    0.18735    1.000
    N3915    N        0.68311    0.28893    0.31406    1.000
    Si3916   Si       0.65005    0.37211    0.36329    1.000
    Si3917   Si       0.69113    0.31239    0.34868    1.000
    N3918    N        0.68886    0.34641    0.27213    1.000
    N3919    N        0.65271    0.37966    0.32122    1.000
    N3920    N        0.64076    0.44066    0.27854    1.000
    Si3921   Si       0.68751    0.48482    0.33992    1.000
    N3922    N        0.64561    0.47432    0.34126    1.000
    Si3923   Si       0.67732    0.50406    0.26405    1.000
    N3924    N        0.65972    0.33238    0.37128    1.000
    Si3925   Si       0.67761    0.29648    0.47830    1.000
    Si3926   Si       0.67604    0.31146    0.40810    1.000
    N3927    N        0.65192    0.29766    0.44228    1.000
    N3928    N        0.66247    0.40000    0.43741    1.000
    Si3929   Si       0.64315    0.48887    0.38311    1.000
    Si3930   Si       0.66351    0.40934    0.47858    1.000
    N3931    N        0.66376    0.31227    0.60123    1.000
    Si3932   Si       0.66330    0.34994    0.58112    1.000
    N3933    N        0.67571    0.33327    0.49930    1.000
    N3934    N        0.67018    0.25680    0.49500    1.000
    N3935    N        0.65052    0.38148    0.60962    1.000
    N3936    N        0.65541    0.44853    0.60630    1.000
    Si3937   Si       0.67125    0.47568    0.57445    1.000
    N3938    N        0.64568    0.49050    0.54106    1.000
    N3939    N        0.66271    0.44898    0.49372    1.000
    Si3940   Si       0.67115    0.31007    0.71366    1.000
    Si3941   Si       0.68698    0.30206    0.63630    1.000
    N3942    N        0.66289    0.29648    0.67325    1.000
    N3943    N        0.63714    0.37662    0.73918    1.000
    N3944    N        0.69280    0.28009    0.73722    1.000
    Si3945   Si       0.68228    0.37661    0.74670    1.000
    N3946    N        0.63611    0.50501    0.72703    1.000
    Si3947   Si       0.67730    0.43566    0.70178    1.000
    Si3948   Si       0.67466    0.41488    0.62361    1.000
    N3949    N        0.68131    0.41182    0.66715    1.000
    N3950    N        0.69316    0.41784    0.74031    1.000
    N3951    N        0.65809    0.37474    0.84715    1.000
    Si3952   Si       0.66505    0.33545    0.86598    1.000
    N3953    N        0.68808    0.27966    0.80482    1.000
    N3954    N        0.69083    0.36229    0.78809    1.000
    Si3955   Si       0.67967    0.25558    0.76950    1.000
    N3956    N        0.64131    0.46522    0.85029    1.000
    Si3957   Si       0.68492    0.46214    0.84073    1.000
    Si3958   Si       0.68992    0.39030    0.82227    1.000
    N3959    N        0.68872    0.48737    0.76894    1.000
    N3960    N        0.69256    0.43228    0.80915    1.000
    N3961    N        0.63877    0.26334    0.92978    1.000
    Si3962   Si       0.66705    0.36678    0.93450    1.000
    N3963    N        0.66809    0.32997    0.91051    1.000
    N3964    N        0.67642    0.27303    0.88144    1.000
    Si3965   Si       0.67392    0.28938    0.92311    1.000
    N3966    N        0.69301    0.35289    0.96716    1.000
    N3967    N        0.66302    0.48869    0.91423    1.000
    Si3968   Si       0.64051    0.50198    0.94876    1.000
    N3969    N        0.68094    0.41332    0.98470    1.000
    N3970    N        0.69423    0.39735    0.91673    1.000
    N3971    N        0.67027    0.61469    0.04705    1.000
    Si3972   Si       0.66725    0.57265    0.02742    1.000
    Si3973   Si       0.68994    0.51104    0.00474    1.000
    Si3974   Si       0.63645    0.61865    0.07559    1.000
    Si3975   Si       0.63893    0.52376    0.09185    1.000
    Si3976   Si       0.67093    0.63466    0.00651    1.000
    N3977    N        0.63769    0.55450    0.05936    1.000
    Si3978   Si       0.66775    0.74221    0.01127    1.000
    N3979    N        0.66783    0.72366    0.10094    1.000
    Si3980   Si       0.66725    0.69364    0.06824    1.000
    N3981    N        0.65024    0.70774    0.03070    1.000
    N3982    N        0.64187    0.66180    0.08379    1.000
    N3983    N        0.66392    0.54422    0.11978    1.000
    N3984    N        0.67921    0.60335    0.15960    1.000
    N3985    N        0.67837    0.60597    0.23109    1.000
    Si3986   Si       0.64858    0.57690    0.14163    1.000
    Si3987   Si       0.66251    0.62473    0.19404    1.000
    Si3988   Si       0.67048    0.68905    0.16118    1.000
    N3989    N        0.69093    0.72891    0.16590    1.000
    N3990    N        0.67309    0.66699    0.19893    1.000
    N3991    N        0.65722    0.58339    0.29377    1.000
    Si3992   Si       0.67794    0.55343    0.36371    1.000
    Si3993   Si       0.64606    0.60400    0.25776    1.000
    N3994    N        0.64066    0.57482    0.35934    1.000
    N3995    N        0.63835    0.50937    0.27711    1.000
    N3996    N        0.64021    0.71325    0.26105    1.000
    Si3997   Si       0.64626    0.67567    0.28405    1.000
    Si3998   Si       0.66829    0.74576    0.25719    1.000
    N3999    N        0.68646    0.65966    0.27799    1.000
    N4000    N        0.68402    0.75238    0.29866    1.000
    N4001    N        0.68235    0.51268    0.37688    1.000
    Si4002   Si       0.67578    0.59174    0.43279    1.000
    N4003    N        0.68767    0.58109    0.47455    1.000
    N4004    N        0.69265    0.62985    0.41872    1.000
    N4005    N        0.65441    0.73037    0.36815    1.000
    Si4006   Si       0.66473    0.70609    0.48733    1.000
    N4007    N        0.64665    0.72304    0.45051    1.000
    Si4008   Si       0.69463    0.73302    0.38433    1.000
    N4009    N        0.69337    0.67677    0.47480    1.000
    Si4010   Si       0.65875    0.55059    0.59474    1.000
    N4011    N        0.65062    0.56069    0.55399    1.000
    Si4012   Si       0.65198    0.53080    0.52251    1.000
    N4013    N        0.64560    0.62128    0.51656    1.000
    N4014    N        0.67867    0.51169    0.59642    1.000
    Si4015   Si       0.68902    0.61222    0.50834    1.000
    N4016    N        0.69008    0.51784    0.50426    1.000
    N4017    N        0.66309    0.66679    0.59487    1.000
    Si4018   Si       0.67474    0.71013    0.60295    1.000
    N4019    N        0.66675    0.74843    0.57694    1.000
    N4020    N        0.68912    0.73134    0.51424    1.000
    Si4021   Si       0.63857    0.63919    0.61764    1.000
    N4022    N        0.67475    0.62364    0.72060    1.000
    N4023    N        0.69009    0.54508    0.72086    1.000
    Si4024   Si       0.67210    0.58370    0.73696    1.000
    Si4025   Si       0.67908    0.50428    0.72945    1.000
    Si4026   Si       0.64875    0.64678    0.69283    1.000
    N4027    N        0.66115    0.62969    0.65423    1.000
    N4028    N        0.65455    0.69023    0.69000    1.000
    N4029    N        0.63596    0.72093    0.62448    1.000
    N4030    N        0.65804    0.61395    0.79502    1.000
    Si4031   Si       0.68877    0.54252    0.85383    1.000
    N4032    N        0.68831    0.55537    0.81278    1.000
    N4033    N        0.64747    0.53784    0.86594    1.000
    N4034    N        0.65860    0.69318    0.80225    1.000
    Si4035   Si       0.64705    0.72239    0.77098    1.000
    N4036    N        0.68877    0.72523    0.76089    1.000
    Si4037   Si       0.63854    0.68842    0.83925    1.000
    N4038    N        0.67251    0.68947    0.86747    1.000
    Si4039   Si       0.65198    0.60827    0.91823    1.000
    N4040    N        0.67811    0.57761    0.93110    1.000
    N4041    N        0.66372    0.52636    0.97493    1.000
    Si4042   Si       0.64442    0.56274    0.96041    1.000
    N4043    N        0.68627    0.59536    0.99251    1.000
    Si4044   Si       0.65595    0.68264    0.90895    1.000
    N4045    N        0.66111    0.71357    0.93911    1.000
    N4046    N        0.66936    0.64627    0.92707    1.000
    Si4047   Si       0.69294    0.69672    0.96521    1.000
    Si4048   Si       0.65647    0.75648    0.94077    1.000
    N4049    N        0.67521    0.83300    0.06442    1.000
    N4050    N        0.66205    0.87163    0.00680    1.000
    Si4051   Si       0.67442    0.79152    0.07356    1.000
    Si4052   Si       0.64435    0.84760    0.03685    1.000
    N4053    N        0.68898    0.76418    0.04310    1.000
    N4054    N        0.69440    0.78390    0.11126    1.000
    Si4055   Si       0.69947    0.86449    0.08856    1.000
    N4056    N        0.63258    0.78137    0.07884    1.000
    N4057    N        0.66664    0.96430    0.06699    1.000
    N4058    N        0.69423    0.90934    0.09641    1.000
    N4059    N        0.67664    0.83825    0.23266    1.000
    Si4060   Si       0.68354    0.80788    0.20048    1.000
    N4061    N        0.68295    0.76996    0.22229    1.000
    N4062    N        0.65159    0.80780    0.17248    1.000
    N4063    N        0.67407    0.85117    0.12727    1.000
    Si4064   Si       0.63688    0.84176    0.14864    1.000
    N4065    N        0.67277    0.93322    0.16160    1.000
    N4066    N        0.67423    0.94687    0.23727    1.000
    Si4067   Si       0.69604    0.94035    0.19965    1.000
    Si4068   Si       0.65964    0.84989    0.27100    1.000
    Si4069   Si       0.66190    0.78947    0.30248    1.000
    N4070    N        0.68487    0.82510    0.30187    1.000
    N4071    N        0.64481    0.86053    0.36498    1.000
    N4072    N        0.63880    0.79209    0.34110    1.000
    N4073    N        0.63364    0.77787    0.27275    1.000
    N4074    N        0.65889    0.92690    0.30545    1.000
    Si4075   Si       0.66426    0.95837    0.33457    1.000
    Si4076   Si       0.68984    0.92496    0.27422    1.000
    N4077    N        0.69162    0.98773    0.31971    1.000
    N4078    N        0.63789    0.88673    0.25504    1.000
    N4079    N        0.68998    0.76245    0.41590    1.000
    Si4080   Si       0.65819    0.83608    0.43546    1.000
    N4081    N        0.68034    0.85514    0.46858    1.000
    Si4082   Si       0.68715    0.86081    0.38055    1.000
    N4083    N        0.65398    0.79867    0.46079    1.000
    Si4084   Si       0.64948    0.76293    0.43530    1.000
    N4085    N        0.68999    0.82687    0.40672    1.000
    Si4086   Si       0.68969    0.81399    0.48399    1.000
    N4087    N        0.68451    0.94733    0.37172    1.000
    Si4088   Si       0.66282    0.92701    0.40304    1.000
    N4089    N        0.68523    0.89042    0.41406    1.000
    N4090    N        0.68460    0.92325    0.47757    1.000
    N4091    N        0.65137    0.95754    0.43293    1.000
    Si4092   Si       0.68895    0.96223    0.45974    1.000
    N4093    N        0.65596    0.83551    0.57745    1.000
    Si4094   Si       0.66290    0.86065    0.61125    1.000
    N4095    N        0.68595    0.80432    0.52551    1.000
    Si4096   Si       0.67050    0.76393    0.53625    1.000
    N4097    N        0.65213    0.89033    0.53543    1.000
    N4098    N        0.66990    0.90125    0.60144    1.000
    Si4099   Si       0.67280    0.97206    0.55477    1.000
    N4100    N        0.64653    0.95888    0.51827    1.000
    Si4101   Si       0.68709    0.89986    0.56081    1.000
    N4102    N        0.64656    0.96683    0.58801    1.000
    Si4103   Si       0.64951    0.91740    0.50140    1.000
    Si4104   Si       0.66127    0.93954    0.61962    1.000
    N4105    N        0.66424    0.82005    0.69469    1.000
    Si4106   Si       0.68665    0.85385    0.67874    1.000
    Si4107   Si       0.68219    0.77934    0.69301    1.000
    Si4108   Si       0.65346    0.83393    0.73435    1.000
    N4109    N        0.64268    0.75927    0.69097    1.000
    Si4110   Si       0.65723    0.90626    0.72483    1.000
    N4111    N        0.65541    0.88239    0.68720    1.000
    N4112    N        0.65941    0.78379    0.85236    1.000
    N4113    N        0.68306    0.85156    0.84646    1.000
    Si4114   Si       0.64194    0.86616    0.85645    1.000
    N4115    N        0.68975    0.84597    0.75360    1.000
    N4116    N        0.67827    0.97133    0.84331    1.000
    N4117    N        0.66752    0.90594    0.76893    1.000
    Si4118   Si       0.67058    0.99282    0.78474    1.000
    Si4119   Si       0.64953    0.94841    0.86602    1.000
    N4120    N        0.65849    0.90449    0.86828    1.000
    N4121    N        0.68004    0.83892    0.91665    1.000
    N4122    N        0.65003    0.76737    0.98152    1.000
    Si4123   Si       0.64019    0.82444    0.91646    1.000
    N4124    N        0.65912    0.89937    0.94382    1.000
    N4125    N        0.65074    0.96370    0.90586    1.000
    Si4126   Si       0.66368    0.94170    0.94078    1.000
    N4127    N        0.64306    0.96700    0.97103    1.000
    Si4128   Si       0.63553    0.00200    0.91827    1.000
    N4129    N        0.72708    0.07236    0.10319    1.000
    N4130    N        0.70366    0.08572    0.02023    1.000
    Si4131   Si       0.74298    0.04110    0.07766    1.000
    N4132    N        0.70511    0.02381    0.06152    1.000
    Si4133   Si       0.69836    0.10247    0.09320    1.000
    Si4134   Si       0.74562    0.07819    0.00996    1.000
    Si4135   Si       0.71818    0.12980    0.02586    1.000
    N4136    N        0.71310    0.13350    0.06654    1.000
    N4137    N        0.75244    0.12228    0.00084    1.000
    Si4138   Si       0.71497    0.16405    0.09561    1.000
    Si4139   Si       0.70643    0.23263    0.11124    1.000
    N4140    N        0.74795    0.23619    0.11466    1.000
    N4141    N        0.69749    0.20164    0.08242    1.000
    N4142    N        0.70582    0.06570    0.22021    1.000
    N4143    N        0.72090    0.04069    0.16670    1.000
    N4144    N        0.74670    0.10175    0.17053    1.000
    Si4145   Si       0.74412    0.06695    0.19678    1.000
    N4146    N        0.73586    0.24918    0.24182    1.000
    N4147    N        0.69337    0.13370    0.12205    1.000
    N4148    N        0.70857    0.15177    0.19055    1.000
    Si4149   Si       0.75110    0.13923    0.19288    1.000
    N4150    N        0.73502    0.10798    0.33696    1.000
    N4151    N        0.70765    0.05274    0.31394    1.000
    Si4152   Si       0.69852    0.09540    0.31447    1.000
    N4153    N        0.71379    0.18093    0.33883    1.000
    N4154    N        0.71098    0.16567    0.25835    1.000
    Si4155   Si       0.70162    0.18875    0.29818    1.000
    N4156    N        0.75184    0.23704    0.36141    1.000
    N4157    N        0.74759    0.20495    0.29515    1.000
    Si4158   Si       0.69264    0.24242    0.24668    1.000
    N4159    N        0.69681    0.07409    0.39075    1.000
    Si4160   Si       0.73537    0.02174    0.47878    1.000
    Si4161   Si       0.70391    0.03919    0.41526    1.000
    Si4162   Si       0.72756    0.10269    0.37881    1.000
    N4163    N        0.72841    0.05307    0.44937    1.000
    N4164    N        0.74924    0.12653    0.45932    1.000
    N4165    N        0.72852    0.00786    0.39595    1.000
    Si4166   Si       0.69538    0.17503    0.37582    1.000
    N4167    N        0.73976    0.22811    0.49252    1.000
    N4168    N        0.71602    0.14252    0.39666    1.000
    Si4169   Si       0.72143    0.25052    0.39150    1.000
    N4170    N        0.70312    0.17672    0.45146    1.000
    Si4171   Si       0.73449    0.15678    0.43297    1.000
    N4172    N        0.74289    0.25545    0.42741    1.000
    Si4173   Si       0.70408    0.04310    0.59203    1.000
    N4174    N        0.74683    0.04348    0.58266    1.000
    Si4175   Si       0.73786    0.01447    0.55382    1.000
    N4176    N        0.75125    0.03340    0.51677    1.000
    N4177    N        0.74150    0.16434    0.51894    1.000
    Si4178   Si       0.70318    0.16325    0.59345    1.000
    N4179    N        0.74483    0.16915    0.58509    1.000
    Si4180   Si       0.71214    0.25705    0.50902    1.000
    Si4181   Si       0.69664    0.16549    0.52478    1.000
    Si4182   Si       0.70415    0.06265    0.66025    1.000
    N4183    N        0.70280    0.03092    0.63198    1.000
    N4184    N        0.74395    0.08366    0.65330    1.000
    Si4185   Si       0.74691    0.12136    0.63299    1.000
    Si4186   Si       0.73760    0.02057    0.70789    1.000
    N4187    N        0.70570    0.05046    0.70073    1.000
    Si4188   Si       0.72865    0.16787    0.68669    1.000
    N4189    N        0.70695    0.13396    0.62543    1.000
    N4190    N        0.72456    0.20390    0.66316    1.000
    N4191    N        0.73602    0.18177    0.72663    1.000
    Si4192   Si       0.74073    0.06032    0.77302    1.000
    N4193    N        0.70272    0.11036    0.82115    1.000
    N4194    N        0.74220    0.02023    0.75199    1.000
    Si4195   Si       0.74414    0.02776    0.84560    1.000
    Si4196   Si       0.74424    0.09881    0.83173    1.000
    N4197    N        0.69991    0.07522    0.76263    1.000
    N4198    N        0.74941    0.05866    0.81590    1.000
    N4199    N        0.70719    0.03278    0.86502    1.000
    Si4200   Si       0.73126    0.21997    0.80958    1.000
    N4201    N        0.70928    0.22714    0.84460    1.000
    Si4202   Si       0.71386    0.17875    0.76282    1.000
    N4203    N        0.70099    0.21914    0.77602    1.000
    N4204    N        0.74610    0.18193    0.79641    1.000
    N4205    N        0.73938    0.09032    0.87851    1.000
    Si4206   Si       0.72193    0.02786    0.95434    1.000
    Si4207   Si       0.70652    0.06649    0.88996    1.000
    N4208    N        0.69934    0.05804    0.93202    1.000
    N4209    N        0.75132    0.05070    0.97767    1.000
    Si4210   Si       0.72345    0.15788    0.91191    1.000
    N4211    N        0.73500    0.19828    0.89916    1.000
    Si4212   Si       0.70011    0.19950    0.87520    1.000
    N4213    N        0.70197    0.15509    0.87433    1.000
    Si4214   Si       0.70731    0.18901    0.97655    1.000
    N4215    N        0.70901    0.37453    0.09630    1.000
    N4216    N        0.72788    0.37625    0.02455    1.000
    N4217    N        0.69689    0.27565    0.11283    1.000
    N4218    N        0.75071    0.26399    0.99777    1.000
    Si4219   Si       0.72432    0.39358    0.06295    1.000
    Si4220   Si       0.72336    0.45811    0.03000    1.000
    N4221    N        0.74017    0.48783    0.05679    1.000
    N4222    N        0.70205    0.43105    0.05771    1.000
    N4223    N        0.71690    0.26943    0.17915    1.000
    Si4224   Si       0.72617    0.29125    0.14141    1.000
    N4225    N        0.71310    0.33256    0.14635    1.000
    Si4226   Si       0.73146    0.37518    0.13493    1.000
    Si4227   Si       0.72641    0.41371    0.20758    1.000
    N4228    N        0.74327    0.49571    0.24089    1.000
    Si4229   Si       0.72832    0.45382    0.14672    1.000
    N4230    N        0.74670    0.42000    0.12822    1.000
    N4231    N        0.71560    0.38523    0.17671    1.000
    N4232    N        0.73847    0.44953    0.18725    1.000
    N4233    N        0.73930    0.49430    0.12699    1.000
    N4234    N        0.71773    0.34340    0.33044    1.000
    Si4235   Si       0.70346    0.30636    0.27691    1.000
    N4236    N        0.74748    0.30901    0.28052    1.000
    Si4237   Si       0.69214    0.37016    0.30801    1.000
    N4238    N        0.70079    0.48983    0.29879    1.000
    N4239    N        0.71867    0.40515    0.30673    1.000
    Si4240   Si       0.72118    0.41548    0.34914    1.000
    N4241    N        0.72072    0.45750    0.35347    1.000
    Si4242   Si       0.74366    0.48926    0.28402    1.000
    N4243    N        0.72184    0.29250    0.48570    1.000
    N4244    N        0.70034    0.28683    0.38288    1.000
    N4245    N        0.70033    0.34119    0.42640    1.000
    Si4246   Si       0.69869    0.38204    0.41616    1.000
    N4247    N        0.72854    0.45967    0.48134    1.000
    Si4248   Si       0.73444    0.41700    0.47276    1.000
    N4249    N        0.73251    0.40432    0.43112    1.000
    N4250    N        0.70264    0.39473    0.49306    1.000
    Si4251   Si       0.74703    0.48454    0.45182    1.000
    N4252    N        0.75103    0.46499    0.41352    1.000
    Si4253   Si       0.75154    0.47990    0.37378    1.000
    N4254    N        0.68936    0.39365    0.37393    1.000
    Si4255   Si       0.70805    0.35731    0.51673    1.000
    N4256    N        0.69926    0.36054    0.55964    1.000
    N4257    N        0.74917    0.35019    0.51187    1.000
    N4258    N        0.71208    0.25679    0.55206    1.000
    Si4259   Si       0.73054    0.38590    0.57745    1.000
    N4260    N        0.71445    0.41212    0.60755    1.000
    N4261    N        0.70602    0.46267    0.55056    1.000
    N4262    N        0.75026    0.40962    0.54705    1.000
    Si4263   Si       0.74594    0.45362    0.55792    1.000
    Si4264   Si       0.69683    0.47381    0.50741    1.000
    N4265    N        0.70455    0.26310    0.63095    1.000
    Si4266   Si       0.74532    0.28054    0.63597    1.000
    N4267    N        0.72739    0.32160    0.63984    1.000
    Si4268   Si       0.73663    0.35383    0.70099    1.000
    Si4269   Si       0.73350    0.28953    0.74263    1.000
    N4270    N        0.69671    0.34717    0.71560    1.000
    N4271    N        0.75901    0.37145    0.66932    1.000
    Si4272   Si       0.72916    0.49157    0.67632    1.000
    N4273    N        0.69854    0.47549    0.70362    1.000
    Si4274   Si       0.74702    0.43373    0.62621    1.000
    N4275    N        0.72842    0.46988    0.64071    1.000
    N4276    N        0.73778    0.31580    0.77739    1.000
    Si4277   Si       0.70391    0.27131    0.84670    1.000
    Si4278   Si       0.70307    0.32314    0.80343    1.000
    N4279    N        0.70141    0.32405    0.84678    1.000
    N4280    N        0.74554    0.28546    0.86200    1.000
    N4281    N        0.72507    0.38694    0.84697    1.000
    Si4282   Si       0.70638    0.44657    0.76887    1.000
    N4283    N        0.70088    0.50179    0.83843    1.000
    N4284    N        0.74820    0.44880    0.76514    1.000
    Si4285   Si       0.73977    0.32728    0.87417    1.000
    N4286    N        0.70772    0.28923    0.95112    1.000
    N4287    N        0.74143    0.33979    0.91509    1.000
    Si4288   Si       0.72598    0.32874    0.95417    1.000
    Si4289   Si       0.70810    0.26901    0.98939    1.000
    N4290    N        0.73366    0.50734    0.90530    1.000
    Si4291   Si       0.71245    0.41492    0.95292    1.000
    N4292    N        0.74714    0.39008    0.95887    1.000
    Si4293   Si       0.71939    0.40765    0.88358    1.000
    Si4294   Si       0.70591    0.47601    0.90965    1.000
    N4295    N        0.72118    0.45637    0.94576    1.000
    N4296    N        0.70538    0.44801    0.87615    1.000
    Si4297   Si       0.75417    0.47088    0.97228    1.000
    N4298    N        0.73165    0.49961    0.99480    1.000
    N4299    N        0.72109    0.61087    0.09797    1.000
    Si4300   Si       0.74136    0.52565    0.03370    1.000
    N4301    N        0.70070    0.54464    0.02930    1.000
    N4302    N        0.74040    0.62959    0.03210    1.000
    Si4303   Si       0.75309    0.58196    0.09777    1.000
    Si4304   Si       0.70810    0.63145    0.06208    1.000
    Si4305   Si       0.73013    0.68548    0.10703    1.000
    N4306    N        0.70706    0.67382    0.07161    1.000
    N4307    N        0.73544    0.72831    0.11247    1.000
    N4308    N        0.69977    0.66253    0.99161    1.000
    N4309    N        0.74639    0.56253    0.13830    1.000
    Si4310   Si       0.71995    0.60240    0.23845    1.000
    N4311    N        0.73836    0.57300    0.21221    1.000
    Si4312   Si       0.73262    0.52391    0.15650    1.000
    Si4313   Si       0.72396    0.53305    0.22157    1.000
    Si4314   Si       0.70946    0.62441    0.13734    1.000
    N4315    N        0.70323    0.52072    0.18600    1.000
    N4316    N        0.74896    0.62399    0.16002    1.000
    N4317    N        0.70228    0.66824    0.13657    1.000
    Si4318   Si       0.69694    0.74442    0.12519    1.000
    Si4319   Si       0.70650    0.73700    0.20442    1.000
    N4320    N        0.75048    0.74092    0.20991    1.000
    N4321    N        0.70374    0.71232    0.24028    1.000
    N4322    N        0.73157    0.64401    0.22809    1.000
    Si4323   Si       0.69711    0.66955    0.23524    1.000
    N4324    N        0.72328    0.60184    0.28316    1.000
    N4325    N        0.70810    0.55517    0.33222    1.000
    N4326    N        0.69917    0.54209    0.25727    1.000
    Si4327   Si       0.74989    0.54575    0.33744    1.000
    Si4328   Si       0.69822    0.56807    0.29249    1.000
    N4329    N        0.71446    0.63433    0.35030    1.000
    Si4330   Si       0.72683    0.67544    0.36375    1.000
    Si4331   Si       0.71754    0.65389    0.30802    1.000
    Si4332   Si       0.71998    0.73577    0.31680    1.000
    N4333    N        0.72022    0.69388    0.32480    1.000
    N4334    N        0.72582    0.74721    0.35901    1.000
    Si4335   Si       0.74573    0.72423    0.25003    1.000
    N4336    N        0.75057    0.74394    0.28809    1.000
    N4337    N        0.74719    0.52260    0.37402    1.000
    Si4338   Si       0.71806    0.61028    0.38974    1.000
    N4339    N        0.71976    0.51811    0.44358    1.000
    Si4340   Si       0.71621    0.53006    0.40306    1.000
    Si4341   Si       0.71169    0.54533    0.47798    1.000
    N4342    N        0.69810    0.57050    0.39938    1.000
    N4343    N        0.74681    0.66823    0.44166    1.000
    N4344    N        0.70671    0.69340    0.39724    1.000
    Si4345   Si       0.70345    0.66955    0.43220    1.000
    Si4346   Si       0.73502    0.66699    0.48255    1.000
    Si4347   Si       0.72573    0.59967    0.58738    1.000
    N4348    N        0.70289    0.61846    0.55288    1.000
    N4349    N        0.69719    0.56981    0.60308    1.000
    N4350    N        0.73060    0.62673    0.49589    1.000
    Si4351   Si       0.71137    0.53100    0.61800    1.000
    Si4352   Si       0.70069    0.65549    0.57748    1.000
    Si4353   Si       0.72229    0.71732    0.53680    1.000
    N4354    N        0.71706    0.69642    0.57559    1.000
    Si4355   Si       0.74318    0.70796    0.60836    1.000
    N4356    N        0.74473    0.75147    0.54863    1.000
    N4357    N        0.71961    0.63659    0.61180    1.000
    N4358    N        0.74986    0.75009    0.61514    1.000
    N4359    N        0.75042    0.69070    0.51662    1.000
    N4360    N        0.72651    0.59750    0.67215    1.000
    N4361    N        0.71671    0.52854    0.66007    1.000
    Si4362   Si       0.71810    0.55897    0.68993    1.000
    Si4363   Si       0.70441    0.63227    0.65279    1.000
    Si4364   Si       0.71561    0.74490    0.73222    1.000
    N4365    N        0.70633    0.70949    0.63439    1.000
    N4366    N        0.70525    0.73520    0.69246    1.000
    N4367    N        0.71680    0.66180    0.68419    1.000
    Si4368   Si       0.73000    0.74560    0.65697    1.000
    Si4369   Si       0.71661    0.63856    0.72606    1.000
    Si4370   Si       0.69556    0.69815    0.67656    1.000
    N4371    N        0.72276    0.61848    0.82192    1.000
    N4372    N        0.71109    0.58741    0.76215    1.000
    N4373    N        0.74270    0.52470    0.77944    1.000
    Si4374   Si       0.70487    0.51822    0.79680    1.000
    Si4375   Si       0.73520    0.60737    0.86322    1.000
    Si4376   Si       0.74803    0.56484    0.75630    1.000
    Si4377   Si       0.69404    0.59458    0.80172    1.000
    Si4378   Si       0.74116    0.65059    0.80103    1.000
    N4379    N        0.71599    0.65936    0.76386    1.000
    N4380    N        0.72899    0.68805    0.82021    1.000
    Si4381   Si       0.71332    0.67735    0.86255    1.000
    Si4382   Si       0.69903    0.69067    0.78733    1.000
    N4383    N        0.71764    0.56926    0.87360    1.000
    Si4384   Si       0.73817    0.55136    0.90788    1.000
    N4385    N        0.74483    0.55693    0.95140    1.000
    Si4386   Si       0.71138    0.58334    0.96129    1.000
    N4387    N        0.73336    0.62116    0.95439    1.000
    Si4388   Si       0.74029    0.64564    0.99091    1.000
    Si4389   Si       0.75371    0.71067    0.91729    1.000
    N4390    N        0.72176    0.64219    0.88465    1.000
    Si4391   Si       0.71335    0.64570    0.92716    1.000
    N4392    N        0.72320    0.68645    0.93649    1.000
    N4393    N        0.70291    0.73237    0.98774    1.000
    N4394    N        0.73765    0.71110    0.87739    1.000
    N4395    N        0.73290    0.84141    0.10701    1.000
    Si4396   Si       0.73292    0.75822    0.03358    1.000
    N4397    N        0.72595    0.87333    0.04500    1.000
    N4398    N        0.74990    0.78025    0.06689    1.000
    N4399    N        0.74603    0.77832    0.99669    1.000
    N4400    N        0.69952    0.92862    0.01405    1.000
    Si4401   Si       0.70451    0.88580    0.00795    1.000
    N4402    N        0.72867    0.95511    0.07224    1.000
    Si4403   Si       0.70010    0.98846    0.08304    1.000
    Si4404   Si       0.69444    0.93132    0.05876    1.000
    N4405    N        0.74253    0.84095    0.23241    1.000
    Si4406   Si       0.70705    0.86777    0.23397    1.000
    N4407    N        0.71632    0.81937    0.17393    1.000
    Si4408   Si       0.70459    0.82077    0.13325    1.000
    Si4409   Si       0.75437    0.83001    0.19040    1.000
    N4410    N        0.74310    0.92904    0.14916    1.000
    N4411    N        0.70146    0.98124    0.12655    1.000
    N4412    N        0.72152    0.97634    0.19277    1.000
    Si4413   Si       0.74999    0.90625    0.18577    1.000
    Si4414   Si       0.70404    0.00073    0.16355    1.000
    Si4415   Si       0.70448    0.93373    0.13084    1.000
    N4416    N        0.71299    0.90179    0.20727    1.000
    N4417    N        0.71416    0.86685    0.34883    1.000
    Si4418   Si       0.71612    0.85411    0.30717    1.000
    N4419    N        0.70085    0.88078    0.27505    1.000
    Si4420   Si       0.75109    0.88271    0.36152    1.000
    N4421    N        0.72829    0.94066    0.28732    1.000
    Si4422   Si       0.73299    0.97527    0.31420    1.000
    N4423    N        0.75192    0.96828    0.35311    1.000
    N4424    N        0.72341    0.79974    0.46367    1.000
    Si4425   Si       0.71756    0.79736    0.42176    1.000
    N4426    N        0.74295    0.89111    0.45743    1.000
    N4427    N        0.71905    0.94949    0.43181    1.000
    N4428    N        0.74968    0.91482    0.38830    1.000
    Si4429   Si       0.75431    0.92327    0.43110    1.000
    Si4430   Si       0.72101    0.96377    0.38920    1.000
    Si4431   Si       0.69914    0.88933    0.45469    1.000
    N4432    N        0.69989    0.99819    0.47887    1.000
    N4433    N        0.72012    0.80476    0.58872    1.000
    N4434    N        0.71439    0.86692    0.55796    1.000
    Si4435   Si       0.69622    0.82720    0.56000    1.000
    Si4436   Si       0.75216    0.77844    0.58254    1.000
    Si4437   Si       0.75573    0.86873    0.54543    1.000
    Si4438   Si       0.74475    0.93617    0.54772    1.000
    N4439    N        0.70237    0.93819    0.55348    1.000
    Si4440   Si       0.72189    0.81447    0.63066    1.000
    N4441    N        0.72627    0.85010    0.69728    1.000
    N4442    N        0.70862    0.78370    0.65801    1.000
    N4443    N        0.70120    0.78549    0.73426    1.000
    Si4444   Si       0.73038    0.86097    0.73960    1.000
    N4445    N        0.69342    0.84789    0.63728    1.000
    Si4446   Si       0.72142    0.99268    0.64291    1.000
    N4447    N        0.72182    0.98810    0.68510    1.000
    N4448    N        0.69974    0.95750    0.62735    1.000
    N4449    N        0.74109    0.91771    0.66252    1.000
    Si4450   Si       0.72620    0.94542    0.69515    1.000
    Si4451   Si       0.73751    0.93658    0.62262    1.000
    N4452    N        0.69452    0.92846    0.71888    1.000
    Si4453   Si       0.71260    0.81124    0.76767    1.000
    N4454    N        0.70759    0.79883    0.80671    1.000
    Si4455   Si       0.69101    0.80912    0.84384    1.000
    Si4456   Si       0.69993    0.88689    0.86372    1.000
    N4457    N        0.74028    0.89581    0.76138    1.000
    Si4458   Si       0.71638    0.95688    0.82533    1.000
    N4459    N        0.71982    0.91513    0.83546    1.000
    N4460    N        0.70836    0.96347    0.78241    1.000
    Si4461   Si       0.70535    0.92294    0.76173    1.000
    N4462    N        0.74506    0.98710    0.83362    1.000
    Si4463   Si       0.74748    0.97776    0.76145    1.000
    N4464    N        0.72449    0.80055    0.87259    1.000
    Si4465   Si       0.71267    0.81041    0.91207    1.000
    N4466    N        0.71902    0.87384    0.97046    1.000
    N4467    N        0.69663    0.77634    0.93596    1.000
    Si4468   Si       0.72518    0.76110    0.96309    1.000
    N4469    N        0.74995    0.82271    0.93240    1.000
    Si4470   Si       0.69474    0.87783    0.93329    1.000
    N4471    N        0.72006    0.88895    0.90138    1.000
    N4472    N        0.74487    0.00428    0.92658    1.000
    N4473    N        0.70576    0.94821    0.94577    1.000
    Si4474   Si       0.74617    0.96232    0.93832    1.000
    Si4475   Si       0.71064    0.96127    0.98847    1.000
    N4476    N        0.69850    0.00384    0.98445    1.000
    N4477    N        0.76353    0.06353    0.04653    1.000
    Si4478   Si       0.80641    0.07287    0.04145    1.000
    N4479    N        0.78110    0.11079    0.11106    1.000
    N4480    N        0.81108    0.08116    0.00068    1.000
    N4481    N        0.77586    0.20444    0.04988    1.000
    Si4482   Si       0.77117    0.20816    0.09076    1.000
    N4483    N        0.80646    0.22165    0.11212    1.000
    N4484    N        0.75490    0.17148    0.11115    1.000
    Si4485   Si       0.75450    0.08285    0.13315    1.000
    N4486    N        0.78372    0.05304    0.14625    1.000
    N4487    N        0.78098    0.06516    0.22163    1.000
    Si4488   Si       0.79106    0.01474    0.12696    1.000
    N4489    N        0.76335    0.12863    0.23330    1.000
    Si4490   Si       0.78916    0.19846    0.19571    1.000
    Si4491   Si       0.78778    0.25181    0.13935    1.000
    N4492    N        0.77404    0.23556    0.17778    1.000
    N4493    N        0.77922    0.16371    0.17198    1.000
    N4494    N        0.77227    0.19413    0.23453    1.000
    Si4495   Si       0.78616    0.15020    0.13031    1.000
    N4496    N        0.77304    0.04253    0.34925    1.000
    Si4497   Si       0.77126    0.11160    0.31790    1.000
    N4498    N        0.76655    0.07955    0.28880    1.000
    N4499    N        0.80195    0.10923    0.34787    1.000
    Si4500   Si       0.78541    0.09624    0.25267    1.000
    Si4501   Si       0.75115    0.04559    0.31190    1.000
    N4502    N        0.77756    0.14529    0.29280    1.000
    Si4503   Si       0.76540    0.22506    0.26228    1.000
    N4504    N        0.78082    0.17318    0.35996    1.000
    Si4505   Si       0.75479    0.16131    0.26138    1.000
    Si4506   Si       0.75318    0.19892    0.33823    1.000
    Si4507   Si       0.79474    0.07458    0.37238    1.000
    Si4508   Si       0.75723    0.08525    0.44592    1.000
    N4509    N        0.79048    0.07647    0.47769    1.000
    N4510    N        0.76244    0.08886    0.40186    1.000
    Si4511   Si       0.79064    0.25018    0.36892    1.000
    Si4512   Si       0.76158    0.22733    0.45262    1.000
    N4513    N        0.79851    0.24910    0.45328    1.000
    Si4514   Si       0.79451    0.18690    0.39929    1.000
    N4515    N        0.76492    0.18963    0.43005    1.000
    Si4516   Si       0.78108    0.07060    0.58879    1.000
    Si4517   Si       0.78001    0.06641    0.51889    1.000
    N4518    N        0.76997    0.11011    0.59811    1.000
    N4519    N        0.75919    0.10453    0.53088    1.000
    N4520    N        0.80818    0.06804    0.55443    1.000
    Si4521   Si       0.76103    0.13253    0.49843    1.000
    Si4522   Si       0.76628    0.13648    0.56251    1.000
    Si4523   Si       0.76320    0.20238    0.51995    1.000
    N4524    N        0.77121    0.22374    0.55693    1.000
    Si4525   Si       0.78146    0.19301    0.58668    1.000
    N4526    N        0.80138    0.16436    0.55875    1.000
    N4527    N        0.80404    0.20333    0.50464    1.000
    N4528    N        0.80345    0.13643    0.49858    1.000
    N4529    N        0.80169    0.05569    0.62280    1.000
    Si4530   Si       0.78197    0.06671    0.66122    1.000
    N4531    N        0.77557    0.03419    0.69025    1.000
    N4532    N        0.80807    0.09504    0.68042    1.000
    N4533    N        0.76174    0.14694    0.66362    1.000
    Si4534   Si       0.76621    0.21862    0.65868    1.000
    N4535    N        0.79501    0.14747    0.72363    1.000
    Si4536   Si       0.77950    0.18662    0.73168    1.000
    N4537    N        0.79013    0.20642    0.69353    1.000
    N4538    N        0.79408    0.21071    0.62432    1.000
    Si4539   Si       0.80269    0.13749    0.68094    1.000
    Si4540   Si       0.79814    0.12120    0.75716    1.000
    N4541    N        0.76408    0.09553    0.76460    1.000
    N4542    N        0.77341    0.13037    0.83110    1.000
    N4543    N        0.78216    0.02996    0.86737    1.000
    Si4544   Si       0.78505    0.16673    0.80976    1.000
    N4545    N        0.76491    0.24755    0.80786    1.000
    Si4546   Si       0.78744    0.24837    0.77219    1.000
    N4547    N        0.80212    0.21026    0.75958    1.000
    N4548    N        0.80580    0.19369    0.83442    1.000
    Si4549   Si       0.78232    0.02057    0.90939    1.000
    Si4550   Si       0.79636    0.05210    0.97146    1.000
    Si4551   Si       0.77163    0.09727    0.90933    1.000
    N4552    N        0.79439    0.05856    0.92874    1.000
    N4553    N        0.75350    0.13204    0.92945    1.000
    N4554    N        0.80684    0.09979    0.88427    1.000
    N4555    N        0.80999    0.01506    0.98375    1.000
    Si4556   Si       0.76924    0.22768    0.97849    1.000
    N4557    N        0.79692    0.24077    0.87916    1.000
    N4558    N        0.77355    0.24253    0.93840    1.000
    N4559    N        0.80273    0.18540    0.92173    1.000
    Si4560   Si       0.77493    0.21260    0.90620    1.000
    Si4561   Si       0.76736    0.14870    0.96950    1.000
    N4562    N        0.80840    0.13722    0.96893    1.000
    N4563    N        0.75265    0.18836    0.97608    1.000
    N4564    N        0.79981    0.30803    0.03732    1.000
    Si4565   Si       0.77973    0.29812    0.00053    1.000
    Si4566   Si       0.76000    0.37175    0.99490    1.000
    N4567    N        0.79677    0.38622    0.01115    1.000
    N4568    N        0.76675    0.40803    0.06739    1.000
    Si4569   Si       0.78395    0.42294    0.03245    1.000
    Si4570   Si       0.78014    0.40310    0.10744    1.000
    N4571    N        0.79965    0.49791    0.09330    1.000
    N4572    N        0.75525    0.44020    0.00463    1.000
    N4573    N        0.81322    0.43106    0.11139    1.000
    N4574    N        0.77412    0.36300    0.12441    1.000
    Si4575   Si       0.79676    0.32823    0.13602    1.000
    N4576    N        0.77743    0.29421    0.21368    1.000
    N4577    N        0.76955    0.29318    0.14266    1.000
    Si4578   Si       0.75098    0.26082    0.20191    1.000
    Si4579   Si       0.80302    0.41776    0.22135    1.000
    Si4580   Si       0.76526    0.47881    0.20589    1.000
    N4581    N        0.80354    0.45956    0.20730    1.000
    N4582    N        0.76154    0.41187    0.23565    1.000
    N4583    N        0.78467    0.33969    0.34091    1.000
    Si4584   Si       0.77882    0.29283    0.25627    1.000
    N4585    N        0.77536    0.37401    0.28723    1.000
    Si4586   Si       0.75637    0.34085    0.30992    1.000
    N4587    N        0.79665    0.25488    0.26887    1.000
    N4588    N        0.80798    0.26964    0.33277    1.000
    Si4589   Si       0.79515    0.38096    0.35133    1.000
    Si4590   Si       0.79870    0.45368    0.32027    1.000
    N4591    N        0.76570    0.45311    0.29349    1.000
    N4592    N        0.79003    0.46798    0.35974    1.000
    N4593    N        0.75848    0.40220    0.36802    1.000
    Si4594   Si       0.75338    0.41371    0.27959    1.000
    N4595    N        0.80974    0.41193    0.32125    1.000
    Si4596   Si       0.77865    0.28155    0.43137    1.000
    N4597    N        0.78135    0.31840    0.45457    1.000
    N4598    N        0.79268    0.28872    0.39086    1.000
    Si4599   Si       0.76065    0.31196    0.49391    1.000
    N4600    N        0.77649    0.40783    0.47985    1.000
    N4601    N        0.78693    0.49988    0.46172    1.000
    Si4602   Si       0.76454    0.42174    0.40533    1.000
    N4603    N        0.80747    0.42728    0.41556    1.000
    N4604    N        0.76761    0.27806    0.59807    1.000
    N4605    N        0.77406    0.28722    0.52966    1.000
    N4606    N        0.76691    0.37099    0.59666    1.000
    Si4607   Si       0.75581    0.26201    0.56061    1.000
    Si4608   Si       0.80755    0.29368    0.60686    1.000
    Si4609   Si       0.77344    0.38520    0.51914    1.000
    Si4610   Si       0.79039    0.40395    0.57775    1.000
    N4611    N        0.77129    0.48089    0.53476    1.000
    N4612    N        0.77318    0.44324    0.59172    1.000
    N4613    N        0.80945    0.39045    0.53999    1.000
    Si4614   Si       0.81033    0.49413    0.55300    1.000
    N4615    N        0.75168    0.37779    0.73748    1.000
    N4616    N        0.76568    0.26188    0.66675    1.000
    N4617    N        0.79606    0.32329    0.63863    1.000
    Si4618   Si       0.77922    0.28095    0.70187    1.000
    Si4619   Si       0.76147    0.34752    0.63370    1.000
    N4620    N        0.75643    0.31666    0.71237    1.000
    N4621    N        0.76380    0.26038    0.73882    1.000
    Si4622   Si       0.79096    0.39784    0.67901    1.000
    Si4623   Si       0.79940    0.46077    0.68503    1.000
    N4624    N        0.78402    0.43192    0.65110    1.000
    N4625    N        0.78933    0.42642    0.71156    1.000
    N4626    N        0.77107    0.49330    0.68732    1.000
    Si4627   Si       0.81033    0.45333    0.61869    1.000
    Si4628   Si       0.76578    0.34177    0.75858    1.000
    N4629    N        0.77772    0.36341    0.79599    1.000
    N4630    N        0.77698    0.34784    0.86151    1.000
    Si4631   Si       0.77777    0.26383    0.84552    1.000
    Si4632   Si       0.76499    0.37802    0.83341    1.000
    N4633    N        0.80885    0.29351    0.83837    1.000
    N4634    N        0.81015    0.33691    0.74961    1.000
    Si4635   Si       0.76925    0.48889    0.77341    1.000
    N4636    N        0.78439    0.41759    0.83594    1.000
    N4637    N        0.79606    0.47641    0.80468    1.000
    Si4638   Si       0.80304    0.49921    0.84156    1.000
    Si4639   Si       0.76963    0.41613    0.75020    1.000
    N4640    N        0.80860    0.36489    0.94007    1.000
    Si4641   Si       0.76866    0.37428    0.92455    1.000
    Si4642   Si       0.80560    0.26393    0.91465    1.000
    N4643    N        0.81060    0.30568    0.90503    1.000
    N4644    N        0.75868    0.33036    0.98235    1.000
    N4645    N        0.78516    0.49676    0.95230    1.000
    N4646    N        0.75999    0.40985    0.89913    1.000
    N4647    N        0.78688    0.47640    0.87487    1.000
    Si4648   Si       0.78802    0.43270    0.87643    1.000
    Si4649   Si       0.77803    0.50289    0.90742    1.000
    N4650    N        0.77932    0.53871    0.01376    1.000
    N4651    N        0.78854    0.59988    0.07606    1.000
    Si4652   Si       0.79455    0.56574    0.04418    1.000
    N4653    N        0.79922    0.60254    0.01545    1.000
    N4654    N        0.75630    0.54623    0.07325    1.000
    Si4655   Si       0.75947    0.50672    0.09024    1.000
    Si4656   Si       0.78138    0.62860    0.04411    1.000
    N4657    N        0.79369    0.66725    0.05218    1.000
    Si4658   Si       0.78442    0.69367    0.01995    1.000
    Si4659   Si       0.79989    0.68848    0.08914    1.000
    N4660    N        0.79926    0.73068    0.07851    1.000
    N4661    N        0.77016    0.67071    0.11329    1.000
    Si4662   Si       0.76730    0.75386    0.09734    1.000
    N4663    N        0.75340    0.72097    0.03438    1.000
    Si4664   Si       0.80250    0.53429    0.19708    1.000
    N4665    N        0.79659    0.57725    0.18982    1.000
    Si4666   Si       0.80242    0.59111    0.23125    1.000
    N4667    N        0.76772    0.51515    0.18274    1.000
    N4668    N        0.80383    0.53140    0.23823    1.000
    N4669    N        0.79896    0.63390    0.22330    1.000
    Si4670   Si       0.75570    0.58333    0.17515    1.000
    Si4671   Si       0.78094    0.65286    0.14953    1.000
    Si4672   Si       0.76887    0.66385    0.21945    1.000
    Si4673   Si       0.78695    0.72426    0.19252    1.000
    N4674    N        0.80541    0.74093    0.15562    1.000
    N4675    N        0.77728    0.68297    0.18276    1.000
    N4676    N        0.77416    0.58211    0.33614    1.000
    Si4677   Si       0.79597    0.54071    0.27926    1.000
    N4678    N        0.78671    0.58274    0.27191    1.000
    N4679    N        0.76406    0.52236    0.30311    1.000
    Si4680   Si       0.76302    0.60531    0.30031    1.000
    Si4681   Si       0.79080    0.67934    0.28838    1.000
    N4682    N        0.79743    0.70887    0.31839    1.000
    N4683    N        0.76195    0.64973    0.30243    1.000
    Si4684   Si       0.80217    0.69467    0.35917    1.000
    N4685    N        0.77330    0.69263    0.25183    1.000
    Si4686   Si       0.78941    0.74860    0.30651    1.000
    Si4687   Si       0.79582    0.59544    0.42051    1.000
    Si4688   Si       0.78758    0.54326    0.46526    1.000
    N4689    N        0.79509    0.60695    0.46190    1.000
    N4690    N        0.75868    0.61073    0.40573    1.000
    N4691    N        0.80500    0.55230    0.42612    1.000
    N4692    N        0.75134    0.55976    0.48567    1.000
    Si4693   Si       0.76267    0.59942    0.49129    1.000
    Si4694   Si       0.77338    0.65318    0.41087    1.000
    N4695    N        0.76871    0.67086    0.37323    1.000
    N4696    N        0.79587    0.73145    0.38283    1.000
    Si4697   Si       0.78490    0.55088    0.59323    1.000
    N4698    N        0.76713    0.59168    0.58696    1.000
    N4699    N        0.79444    0.60358    0.52495    1.000
    Si4700   Si       0.79784    0.61818    0.56667    1.000
    N4701    N        0.80604    0.53622    0.55879    1.000
    N4702    N        0.74921    0.52817    0.59679    1.000
    Si4703   Si       0.79477    0.68627    0.52606    1.000
    N4704    N        0.80323    0.66018    0.56013    1.000
    N4705    N        0.78290    0.69187    0.61584    1.000
    N4706    N        0.81138    0.72496    0.53144    1.000
    N4707    N        0.76287    0.62434    0.72725    1.000
    N4708    N        0.80240    0.60611    0.66975    1.000
    N4709    N        0.75644    0.55802    0.71256    1.000
    Si4710   Si       0.76612    0.59804    0.69324    1.000
    Si4711   Si       0.78785    0.52648    0.70886    1.000
    N4712    N        0.81153    0.54278    0.62821    1.000
    Si4713   Si       0.79780    0.71194    0.65239    1.000
    N4714    N        0.76934    0.73300    0.67832    1.000
    N4715    N        0.78582    0.57866    0.77089    1.000
    Si4716   Si       0.79188    0.62115    0.75902    1.000
    N4717    N        0.79488    0.54060    0.83275    1.000
    N4718    N        0.77841    0.60464    0.86131    1.000
    Si4719   Si       0.80005    0.56851    0.86604    1.000
    N4720    N        0.79649    0.50844    0.74814    1.000
    N4721    N        0.78197    0.64687    0.79117    1.000
    N4722    N        0.79621    0.69520    0.84839    1.000
    N4723    N        0.80002    0.71172    0.78285    1.000
    Si4724   Si       0.77843    0.74804    0.78424    1.000
    Si4725   Si       0.75817    0.71417    0.83997    1.000
    N4726    N        0.76378    0.75344    0.82611    1.000
    Si4727   Si       0.80650    0.67713    0.80945    1.000
    N4728    N        0.75750    0.74908    0.74492    1.000
    N4729    N        0.78061    0.54544    0.89762    1.000
    Si4730   Si       0.77929    0.53882    0.97050    1.000
    N4731    N        0.81447    0.62413    0.94617    1.000
    N4732    N        0.77569    0.67070    0.98656    1.000
    N4733    N        0.75704    0.75010    0.93556    1.000
    N4734    N        0.78983    0.68627    0.91822    1.000
    Si4735   Si       0.80368    0.66581    0.95474    1.000
    N4736    N        0.78757    0.84027    0.06096    1.000
    Si4737   Si       0.76764    0.86695    0.03237    1.000
    Si4738   Si       0.76175    0.81707    0.08685    1.000
    N4739    N        0.77493    0.84088    0.99853    1.000
    Si4740   Si       0.78408    0.79868    0.99718    1.000
    N4741    N        0.78291    0.79089    0.11942    1.000
    N4742    N        0.79004    0.90250    0.02342    1.000
    N4743    N        0.79035    0.97320    0.03649    1.000
    N4744    N        0.79524    0.94115    0.09940    1.000
    Si4745   Si       0.78601    0.94276    0.00521    1.000
    Si4746   Si       0.77194    0.96805    0.07512    1.000
    N4747    N        0.76634    0.00723    0.09320    1.000
    N4748    N        0.76902    0.86891    0.17600    1.000
    N4749    N        0.78791    0.80372    0.18685    1.000
    Si4750   Si       0.80705    0.78463    0.15538    1.000
    Si4751   Si       0.80929    0.87400    0.16284    1.000
    Si4752   Si       0.76585    0.97785    0.19836    1.000
    N4753    N        0.77309    0.93594    0.20881    1.000
    N4754    N        0.78890    0.98457    0.15891    1.000
    Si4755   Si       0.79970    0.92403    0.24058    1.000
    Si4756   Si       0.78214    0.94578    0.14106    1.000
    N4757    N        0.78814    0.99802    0.22944    1.000
    Si4758   Si       0.77127    0.84727    0.26312    1.000
    Si4759   Si       0.78310    0.82376    0.33201    1.000
    N4760    N        0.78085    0.77838    0.33706    1.000
    N4761    N        0.80695    0.82669    0.25273    1.000
    N4762    N        0.75590    0.83689    0.30211    1.000
    N4763    N        0.77968    0.84942    0.36526    1.000
    N4764    N        0.77752    0.88957    0.26075    1.000
    Si4765   Si       0.79059    0.99081    0.27216    1.000
    N4766    N        0.79608    0.94655    0.27891    1.000
    N4767    N        0.77147    0.90531    0.33056    1.000
    Si4768   Si       0.78408    0.93286    0.36123    1.000
    Si4769   Si       0.76491    0.91757    0.28974    1.000
    N4770    N        0.75705    0.00688    0.29402    1.000
    Si4771   Si       0.76592    0.76171    0.37256    1.000
    Si4772   Si       0.76005    0.80884    0.48322    1.000
    Si4773   Si       0.79292    0.81200    0.42010    1.000
    N4774    N        0.78580    0.83499    0.45736    1.000
    Si4775   Si       0.77070    0.87137    0.48213    1.000
    N4776    N        0.75649    0.79335    0.40270    1.000
    Si4777   Si       0.76602    0.00774    0.37197    1.000
    Si4778   Si       0.79830    0.98849    0.43917    1.000
    N4779    N        0.79856    0.99481    0.39661    1.000
    N4780    N        0.76799    0.99724    0.46822    1.000
    N4781    N        0.79011    0.94464    0.43773    1.000
    N4782    N        0.81081    0.90697    0.38880    1.000
    N4783    N        0.80982    0.89214    0.47633    1.000
    N4784    N        0.79029    0.79092    0.56319    1.000
    N4785    N        0.78371    0.86128    0.57632    1.000
    Si4786   Si       0.79212    0.84584    0.61576    1.000
    N4787    N        0.75451    0.84278    0.51014    1.000
    Si4788   Si       0.78348    0.75885    0.53292    1.000
    N4789    N        0.78040    0.77295    0.49338    1.000
    N4790    N        0.75538    0.97690    0.54325    1.000
    Si4791   Si       0.78005    0.99126    0.50958    1.000
    N4792    N        0.76397    0.90495    0.52265    1.000
    Si4793   Si       0.79951    0.90320    0.58841    1.000
    Si4794   Si       0.80498    0.91781    0.51208    1.000
    N4795    N        0.75944    0.92312    0.58757    1.000
    Si4796   Si       0.78331    0.75646    0.71176    1.000
    Si4797   Si       0.76291    0.83231    0.68301    1.000
    N4798    N        0.78543    0.79633    0.68729    1.000
    N4799    N        0.78836    0.86617    0.69407    1.000
    N4800    N        0.75890    0.83382    0.64072    1.000
    Si4801   Si       0.79784    0.94478    0.71768    1.000
    Si4802   Si       0.78014    0.89693    0.66763    1.000
    N4803    N        0.80430    0.88398    0.63022    1.000
    Si4804   Si       0.80245    0.96174    0.64070    1.000
    N4805    N        0.75634    0.95389    0.72567    1.000
    N4806    N        0.80247    0.93355    0.67520    1.000
    N4807    N        0.76113    0.97338    0.63186    1.000
    N4808    N        0.77801    0.82513    0.82611    1.000
    Si4809   Si       0.78618    0.81909    0.78300    1.000
    Si4810   Si       0.79976    0.86099    0.83825    1.000
    Si4811   Si       0.76205    0.79145    0.84945    1.000
    N4812    N        0.80594    0.78040    0.78566    1.000
    N4813    N        0.75147    0.82613    0.76085    1.000
    N4814    N        0.77310    0.95582    0.78796    1.000
    Si4815   Si       0.78448    0.97792    0.82334    1.000
    N4816    N        0.79716    0.89687    0.81364    1.000
    Si4817   Si       0.77762    0.91260    0.77788    1.000
    N4818    N        0.80423    0.95358    0.85350    1.000
    N4819    N        0.80657    0.91181    0.74459    1.000
    N4820    N        0.80383    0.79287    0.95974    1.000
    Si4821   Si       0.77523    0.78860    0.92576    1.000
    N4822    N        0.78869    0.78785    0.88504    1.000
    Si4823   Si       0.75719    0.85430    0.96227    1.000
    N4824    N        0.78674    0.87237    0.87683    1.000
    N4825    N        0.76789    0.93769    0.90894    1.000
    Si4826   Si       0.76357    0.89312    0.90600    1.000
    N4827    N        0.78178    0.88597    0.94517    1.000
    Si4828   Si       0.80839    0.95358    0.89738    1.000
    N4829    N        0.75362    0.95916    0.98184    1.000
    Si4830   Si       0.85159    0.03738    0.08807    1.000
    N4831    N        0.85125    0.08036    0.09975    1.000
    N4832    N        0.82647    0.03657    0.05346    1.000
    Si4833   Si       0.82258    0.11170    0.09486    1.000
    Si4834   Si       0.82468    0.12319    0.00940    1.000
    N4835    N        0.81818    0.11358    0.05316    1.000
    N4836    N        0.86903    0.12371    0.99993    1.000
    N4837    N        0.83484    0.01286    0.12073    1.000
    N4838    N        0.84561    0.22484    0.05945    1.000
    N4839    N        0.83067    0.17050    0.01935    1.000
    Si4840   Si       0.84752    0.22580    0.10229    1.000
    Si4841   Si       0.81394    0.20775    0.03273    1.000
    N4842    N        0.82865    0.14846    0.12030    1.000
    Si4843   Si       0.86943    0.16842    0.99799    1.000
    N4844    N        0.83757    0.03254    0.19133    1.000
    Si4845   Si       0.81092    0.03563    0.22428    1.000
    Si4846   Si       0.85030    0.24986    0.18761    1.000
    Si4847   Si       0.85905    0.17942    0.21693    1.000
    Si4848   Si       0.86185    0.16249    0.14349    1.000
    N4849    N        0.86200    0.14844    0.18574    1.000
    N4850    N        0.83202    0.20977    0.19877    1.000
    N4851    N        0.82556    0.11071    0.26246    1.000
    Si4852   Si       0.86019    0.08597    0.25698    1.000
    N4853    N        0.83930    0.04828    0.25666    1.000
    Si4854   Si       0.85968    0.02272    0.28634    1.000
    Si4855   Si       0.86469    0.03971    0.36396    1.000
    Si4856   Si       0.82186    0.14826    0.28374    1.000
    N4857    N        0.83837    0.15953    0.32160    1.000
    N4858    N        0.86133    0.22607    0.29381    1.000
    N4859    N        0.83744    0.17394    0.25536    1.000
    Si4860   Si       0.81520    0.14865    0.35725    1.000
    Si4861   Si       0.86939    0.18863    0.31867    1.000
    N4862    N        0.85319    0.08222    0.45434    1.000
    N4863    N        0.83326    0.06290    0.38513    1.000
    Si4864   Si       0.82648    0.10382    0.48143    1.000
    Si4865   Si       0.86027    0.08198    0.41303    1.000
    N4866    N        0.86816    0.22305    0.47868    1.000
    N4867    N        0.81451    0.22233    0.39023    1.000
    N4868    N        0.86128    0.15369    0.46545    1.000
    Si4869   Si       0.85685    0.22388    0.39127    1.000
    N4870    N        0.82471    0.15423    0.40044    1.000
    Si4871   Si       0.82490    0.23580    0.48509    1.000
    Si4872   Si       0.86274    0.15408    0.42321    1.000
    Si4873   Si       0.83713    0.02678    0.55154    1.000
    N4874    N        0.85542    0.09825    0.51468    1.000
    N4875    N        0.85525    0.11188    0.59186    1.000
    Si4876   Si       0.84730    0.08827    0.55515    1.000
    N4877    N        0.81465    0.01890    0.51625    1.000
    N4878    N        0.85035    0.23008    0.58597    1.000
    Si4879   Si       0.82257    0.16775    0.52105    1.000
    N4880    N        0.86328    0.18075    0.53298    1.000
    Si4881   Si       0.83255    0.02777    0.62034    1.000
    Si4882   Si       0.83643    0.08309    0.70945    1.000
    N4883    N        0.84571    0.04127    0.69997    1.000
    Si4884   Si       0.81380    0.01296    0.69361    1.000
    N4885    N        0.83672    0.15278    0.66045    1.000
    Si4886   Si       0.85935    0.18398    0.68221    1.000
    Si4887   Si       0.83236    0.22735    0.62651    1.000
    Si4888   Si       0.82546    0.22821    0.70749    1.000
    N4889    N        0.85173    0.19669    0.72368    1.000
    Si4890   Si       0.86006    0.14089    0.62476    1.000
    N4891    N        0.84708    0.22474    0.66760    1.000
    Si4892   Si       0.84803    0.07852    0.78793    1.000
    N4893    N        0.81857    0.08163    0.81874    1.000
    N4894    N        0.82614    0.08774    0.75051    1.000
    Si4895   Si       0.81427    0.04206    0.84058    1.000
    Si4896   Si       0.81085    0.11504    0.84578    1.000
    N4897    N        0.84720    0.13695    0.84395    1.000
    Si4898   Si       0.85877    0.14684    0.80417    1.000
    N4899    N        0.85361    0.24619    0.83710    1.000
    Si4900   Si       0.82882    0.21888    0.85965    1.000
    Si4901   Si       0.83883    0.18648    0.76330    1.000
    N4902    N        0.81901    0.15018    0.78359    1.000
    N4903    N        0.84714    0.04080    0.87084    1.000
    N4904    N        0.86310    0.07012    0.93228    1.000
    Si4905   Si       0.83183    0.06989    0.90218    1.000
    N4906    N        0.84376    0.24715    0.93395    1.000
    N4907    N        0.85533    0.19727    0.88545    1.000
    Si4908   Si       0.86787    0.21422    0.92277    1.000
    Si4909   Si       0.83126    0.16004    0.93970    1.000
    N4910    N        0.86305    0.18691    0.95775    1.000
    Si4911   Si       0.86460    0.15653    0.87916    1.000
    N4912    N        0.85893    0.13546    0.91575    1.000
    N4913    N        0.80937    0.23105    0.99663    1.000
    N4914    N        0.83776    0.36609    0.06148    1.000
    Si4915   Si       0.82837    0.32341    0.06406    1.000
    N4916    N        0.82558    0.31473    0.10577    1.000
    N4917    N        0.86449    0.30152    0.05214    1.000
    Si4918   Si       0.83982    0.37891    0.01751    1.000
    N4919    N        0.86758    0.26347    0.00197    1.000
    N4920    N        0.86073    0.34746    0.99633    1.000
    Si4921   Si       0.86424    0.38117    0.09080    1.000
    N4922    N        0.86153    0.48119    0.08740    1.000
    Si4923   Si       0.85137    0.45293    0.01853    1.000
    Si4924   Si       0.82310    0.46509    0.08564    1.000
    N4925    N        0.81662    0.44928    0.04340    1.000
    N4926    N        0.86603    0.41230    0.00868    1.000
    Si4927   Si       0.85377    0.28804    0.12651    1.000
    Si4928   Si       0.81860    0.30989    0.21021    1.000
    N4929    N        0.82985    0.26370    0.15233    1.000
    N4930    N        0.81895    0.33331    0.17422    1.000
    Si4931   Si       0.84803    0.36673    0.17257    1.000
    N4932    N        0.85526    0.28583    0.21189    1.000
    Si4933   Si       0.83781    0.42117    0.14706    1.000
    N4934    N        0.85155    0.38243    0.13344    1.000
    N4935    N        0.86127    0.45433    0.16055    1.000
    N4936    N        0.82374    0.40150    0.18631    1.000
    Si4937   Si       0.84352    0.47384    0.19402    1.000
    N4938    N        0.87161    0.46992    0.22910    1.000
    Si4939   Si       0.85225    0.32356    0.27787    1.000
    N4940    N        0.84280    0.35509    0.30547    1.000
    N4941    N        0.86187    0.28721    0.29338    1.000
    Si4942   Si       0.85685    0.35147    0.34463    1.000
    N4943    N        0.81469    0.31926    0.25482    1.000
    Si4944   Si       0.81004    0.30669    0.35649    1.000
    N4945    N        0.85342    0.31488    0.36667    1.000
    Si4946   Si       0.82928    0.25676    0.29756    1.000
    Si4947   Si       0.81698    0.38546    0.28895    1.000
    N4948    N        0.83295    0.47772    0.31287    1.000
    N4949    N        0.82925    0.41025    0.25654    1.000
    N4950    N        0.85684    0.44238    0.36385    1.000
    Si4951   Si       0.86887    0.43465    0.25451    1.000
    N4952    N        0.83171    0.37509    0.37322    1.000
    N4953    N        0.85471    0.32737    0.43641    1.000
    Si4954   Si       0.81898    0.33916    0.46295    1.000
    N4955    N        0.83552    0.38057    0.46782    1.000
    Si4956   Si       0.86229    0.40383    0.38164    1.000
    N4957    N        0.83460    0.49185    0.40664    1.000
    Si4958   Si       0.81306    0.41510    0.45783    1.000
    N4959    N        0.83876    0.44930    0.46857    1.000
    Si4960   Si       0.82727    0.48692    0.44917    1.000
    Si4961   Si       0.82254    0.45573    0.38677    1.000
    N4962    N        0.83146    0.29962    0.57077    1.000
    Si4963   Si       0.84001    0.37362    0.51377    1.000
    N4964    N        0.83745    0.27221    0.50713    1.000
    Si4965   Si       0.81599    0.30152    0.53032    1.000
    Si4966   Si       0.86197    0.33257    0.57991    1.000
    N4967    N        0.81575    0.33579    0.50594    1.000
    N4968    N        0.86874    0.35333    0.54196    1.000
    Si4969   Si       0.86460    0.26987    0.57579    1.000
    N4970    N        0.84972    0.35575    0.61301    1.000
    N4971    N        0.84172    0.48527    0.52550    1.000
    N4972    N        0.82982    0.41799    0.60023    1.000
    N4973    N        0.82351    0.48391    0.59237    1.000
    Si4974   Si       0.86311    0.45306    0.50443    1.000
    Si4975   Si       0.86434    0.39675    0.61048    1.000
    Si4976   Si       0.85213    0.27374    0.67265    1.000
    N4977    N        0.83650    0.27219    0.63082    1.000
    N4978    N        0.82303    0.27269    0.70687    1.000
    Si4979   Si       0.83332    0.34064    0.65015    1.000
    N4980    N        0.85624    0.31819    0.67690    1.000
    N4981    N        0.82724    0.37623    0.67362    1.000
    Si4982   Si       0.83440    0.29968    0.74004    1.000
    Si4983   Si       0.86310    0.48804    0.68745    1.000
    N4984    N        0.83386    0.46880    0.71602    1.000
    Si4985   Si       0.86890    0.38627    0.68718    1.000
    N4986    N        0.83335    0.47281    0.65204    1.000
    N4987    N        0.86093    0.40755    0.72260    1.000
    Si4988   Si       0.84035    0.28100    0.81291    1.000
    N4989    N        0.84946    0.35782    0.80284    1.000
    N4990    N        0.82456    0.27322    0.77285    1.000
    Si4991   Si       0.81757    0.36825    0.77866    1.000
    N4992    N        0.85621    0.33414    0.86623    1.000
    Si4993   Si       0.81389    0.32575    0.86510    1.000
    Si4994   Si       0.83935    0.49825    0.75503    1.000
    N4995    N        0.85047    0.43543    0.82764    1.000
    N4996    N        0.86853    0.46824    0.77028    1.000
    Si4997   Si       0.86209    0.42508    0.86861    1.000
    N4998    N        0.84544    0.50345    0.85131    1.000
    N4999    N        0.81116    0.41238    0.77044    1.000
    Si5000   Si       0.81146    0.43574    0.80923    1.000
    Si5001   Si       0.82949    0.43120    0.73635    1.000
    N5002    N        0.86774    0.32511    0.93691    1.000
    Si5003   Si       0.82529    0.32317    0.94340    1.000
    N5004    N        0.81275    0.29436    0.97187    1.000
    Si5005   Si       0.83416    0.25706    0.97470    1.000
    N5006    N        0.82266    0.43916    0.94986    1.000
    Si5007   Si       0.86908    0.49647    0.88812    1.000
    N5008    N        0.82586    0.41320    0.88814    1.000
    Si5009   Si       0.82680    0.48233    0.95256    1.000
    Si5010   Si       0.83123    0.40243    0.92976    1.000
    N5011    N        0.84612    0.48519    0.99080    1.000
    Si5012   Si       0.82856    0.58851    0.09099    1.000
    N5013    N        0.83665    0.56520    0.05531    1.000
    N5014    N        0.85758    0.61931    0.09605    1.000
    Si5015   Si       0.86866    0.57269    0.02909    1.000
    Si5016   Si       0.82379    0.74643    0.04590    1.000
    N5017    N        0.82033    0.71895    0.01154    1.000
    N5018    N        0.86656    0.74675    0.05085    1.000
    N5019    N        0.83681    0.51293    0.17933    1.000
    N5020    N        0.86154    0.57579    0.18064    1.000
    N5021    N        0.83022    0.56339    0.12702    1.000
    Si5022   Si       0.85661    0.54055    0.15305    1.000
    Si5023   Si       0.82668    0.59123    0.16136    1.000
    N5024    N        0.81833    0.63173    0.14957    1.000
    N5025    N        0.83478    0.68590    0.11391    1.000
    N5026    N        0.82024    0.72408    0.21928    1.000
    N5027    N        0.86414    0.66470    0.22276    1.000
    Si5028   Si       0.85177    0.64868    0.12648    1.000
    Si5029   Si       0.86016    0.70625    0.21761    1.000
    Si5030   Si       0.84051    0.71889    0.14246    1.000
    N5031    N        0.83759    0.54100    0.29210    1.000
    N5032    N        0.84155    0.60191    0.31912    1.000
    Si5033   Si       0.85479    0.57974    0.28488    1.000
    N5034    N        0.82740    0.54231    0.35882    1.000
    Si5035   Si       0.84621    0.51802    0.32667    1.000
    Si5036   Si       0.81642    0.58267    0.34875    1.000
    N5037    N        0.84587    0.59701    0.24493    1.000
    Si5038   Si       0.84861    0.64443    0.31889    1.000
    N5039    N        0.82982    0.65951    0.28291    1.000
    N5040    N        0.83507    0.66573    0.35455    1.000
    Si5041   Si       0.83642    0.64225    0.24318    1.000
    N5042    N        0.86106    0.51445    0.46274    1.000
    Si5043   Si       0.83541    0.53422    0.40133    1.000
    N5044    N        0.82218    0.60200    0.38634    1.000
    Si5045   Si       0.82177    0.62183    0.49427    1.000
    N5046    N        0.86504    0.62162    0.49373    1.000
    Si5047   Si       0.84467    0.63857    0.38911    1.000
    N5048    N        0.86851    0.67923    0.44814    1.000
    N5049    N        0.81529    0.65735    0.41883    1.000
    Si5050   Si       0.82481    0.67957    0.45339    1.000
    N5051    N        0.81359    0.66605    0.49332    1.000
    Si5052   Si       0.82513    0.74106    0.41197    1.000
    N5053    N        0.81515    0.72154    0.45246    1.000
    N5054    N        0.86548    0.73985    0.39960    1.000
    N5055    N        0.83383    0.59673    0.57127    1.000
    Si5056   Si       0.85104    0.52430    0.50299    1.000
    Si5057   Si       0.85899    0.61299    0.60264    1.000
    Si5058   Si       0.82379    0.57061    0.53663    1.000
    N5059    N        0.81679    0.55139    0.49729    1.000
    Si5060   Si       0.85117    0.74470    0.53450    1.000
    N5061    N        0.85823    0.70073    0.59816    1.000
    Si5062   Si       0.85232    0.74207    0.61093    1.000
    Si5063   Si       0.81950    0.67692    0.59763    1.000
    N5064    N        0.86262    0.58600    0.63806    1.000
    Si5065   Si       0.82581    0.57149    0.65761    1.000
    N5066    N        0.82167    0.55126    0.69878    1.000
    Si5067   Si       0.86496    0.54866    0.70104    1.000
    Si5068   Si       0.84257    0.50816    0.62541    1.000
    N5069    N        0.86882    0.52705    0.66298    1.000
    N5070    N        0.81653    0.68224    0.67800    1.000
    N5071    N        0.82461    0.74481    0.72664    1.000
    N5072    N        0.86624    0.64663    0.69276    1.000
    N5073    N        0.82027    0.74733    0.63813    1.000
    N5074    N        0.86335    0.69441    0.74051    1.000
    N5075    N        0.83179    0.64435    0.62301    1.000
    Si5076   Si       0.82686    0.64085    0.66540    1.000
    Si5077   Si       0.85259    0.68941    0.70038    1.000
    N5078    N        0.83979    0.59132    0.81418    1.000
    N5079    N        0.84443    0.52478    0.79016    1.000
    N5080    N        0.83443    0.62371    0.74958    1.000
    Si5081   Si       0.81518    0.55931    0.79758    1.000
    Si5082   Si       0.85669    0.62622    0.78938    1.000
    Si5083   Si       0.86443    0.58655    0.84926    1.000
    N5084    N        0.84652    0.66014    0.81231    1.000
    Si5085   Si       0.83545    0.72133    0.76186    1.000
    N5086    N        0.86049    0.73653    0.79471    1.000
    Si5087   Si       0.86568    0.66353    0.85296    1.000
    N5088    N        0.84145    0.57483    0.88152    1.000
    Si5089   Si       0.84037    0.55204    0.92159    1.000
    Si5090   Si       0.82286    0.59760    0.97902    1.000
    N5091    N        0.86181    0.59639    0.99400    1.000
    N5092    N        0.81494    0.55830    0.95718    1.000
    N5093    N        0.84278    0.50751    0.91997    1.000
    N5094    N        0.83741    0.73327    0.89412    1.000
    N5095    N        0.86055    0.74971    0.95746    1.000
    Si5096   Si       0.81558    0.69616    0.88675    1.000
    N5097    N        0.84778    0.66760    0.89209    1.000
    Si5098   Si       0.85443    0.71515    0.98445    1.000
    N5099    N        0.84447    0.68261    0.95885    1.000
    N5100    N        0.84672    0.80795    0.08584    1.000
    N5101    N        0.85069    0.84744    0.02822    1.000
    Si5102   Si       0.82494    0.82035    0.05045    1.000
    N5103    N        0.81240    0.78489    0.02954    1.000
    Si5104   Si       0.83213    0.88576    0.02366    1.000
    N5105    N        0.85680    0.98118    0.02511    1.000
    N5106    N        0.85921    0.91532    0.03901    1.000
    Si5107   Si       0.85773    0.94031    0.00543    1.000
    Si5108   Si       0.82754    0.91080    0.11346    1.000
    Si5109   Si       0.81954    0.00379    0.02563    1.000
    N5110    N        0.87098    0.91474    0.10853    1.000
    Si5111   Si       0.85013    0.83270    0.12018    1.000
    N5112    N        0.82231    0.86609    0.12158    1.000
    Si5113   Si       0.82027    0.81864    0.21266    1.000
    N5114    N        0.85062    0.78930    0.21480    1.000
    N5115    N        0.83118    0.85782    0.19612    1.000
    N5116    N        0.84534    0.80368    0.15175    1.000
    Si5117   Si       0.83821    0.75578    0.24030    1.000
    N5118    N        0.81399    0.91773    0.15509    1.000
    Si5119   Si       0.83356    0.99864    0.16396    1.000
    Si5120   Si       0.84625    0.92882    0.18529    1.000
    N5121    N        0.83977    0.91977    0.22764    1.000
    N5122    N        0.85946    0.96993    0.18012    1.000
    Si5123   Si       0.83011    0.80433    0.28391    1.000
    N5124    N        0.82503    0.82713    0.31907    1.000
    N5125    N        0.85734    0.86454    0.36037    1.000
    N5126    N        0.81481    0.76529    0.27555    1.000
    Si5127   Si       0.86727    0.82632    0.33347    1.000
    N5128    N        0.81841    0.95405    0.34525    1.000
    Si5129   Si       0.83714    0.95361    0.30623    1.000
    N5130    N        0.85164    0.91110    0.30058    1.000
    N5131    N        0.82739    0.99642    0.29408    1.000
    Si5132   Si       0.86669    0.90978    0.26089    1.000
    Si5133   Si       0.81717    0.86555    0.37601    1.000
    N5134    N        0.86051    0.83698    0.47214    1.000
    Si5135   Si       0.82590    0.85738    0.45274    1.000
    N5136    N        0.82635    0.83882    0.40968    1.000
    Si5137   Si       0.81561    0.75893    0.47346    1.000
    N5138    N        0.81692    0.77935    0.43379    1.000
    Si5139   Si       0.86865    0.83673    0.39421    1.000
    Si5140   Si       0.83259    0.97278    0.38207    1.000
    N5141    N        0.85690    0.88913    0.43298    1.000
    Si5142   Si       0.82461    0.91900    0.43134    1.000
    N5143    N        0.85430    0.94998    0.41555    1.000
    N5144    N        0.83740    0.00126    0.45464    1.000
    N5145    N        0.85057    0.82343    0.54284    1.000
    Si5146   Si       0.83034    0.80242    0.57694    1.000
    N5147    N        0.84836    0.76324    0.57437    1.000
    N5148    N        0.84790    0.77085    0.49955    1.000
    Si5149   Si       0.86823    0.80982    0.50483    1.000
    N5150    N        0.81941    0.81162    0.61924    1.000
    N5151    N        0.82380    0.90643    0.54938    1.000
    Si5152   Si       0.85590    0.96494    0.59015    1.000
    N5153    N        0.82807    0.94058    0.61188    1.000
    Si5154   Si       0.86433    0.89965    0.56203    1.000
    N5155    N        0.86791    0.88527    0.60317    1.000
    N5156    N        0.83671    0.00272    0.58675    1.000
    Si5157   Si       0.84289    0.98746    0.49720    1.000
    N5158    N        0.81087    0.95898    0.50786    1.000
    Si5159   Si       0.81843    0.78870    0.65729    1.000
    N5160    N        0.85431    0.87027    0.71286    1.000
    N5161    N        0.85168    0.79497    0.68713    1.000
    Si5162   Si       0.81265    0.86908    0.72725    1.000
    Si5163   Si       0.86150    0.75688    0.70689    1.000
    N5164    N        0.86870    0.91954    0.66142    1.000
    Si5165   Si       0.84272    0.90480    0.63290    1.000
    Si5166   Si       0.86439    0.97915    0.72472    1.000
    N5167    N        0.82102    0.98178    0.72142    1.000
    N5168    N        0.82284    0.99820    0.65321    1.000
    N5169    N        0.86614    0.93583    0.72891    1.000
    N5170    N        0.85308    0.77902    0.84549    1.000
    N5171    N        0.84203    0.85216    0.83323    1.000
    Si5172   Si       0.84774    0.77745    0.80261    1.000
    Si5173   Si       0.85052    0.84692    0.78900    1.000
    N5174    N        0.81435    0.84644    0.76545    1.000
    Si5175   Si       0.85152    0.98970    0.80129    1.000
    N5176    N        0.84154    0.94774    0.79735    1.000
    Si5177   Si       0.84586    0.92032    0.76301    1.000
    Si5178   Si       0.82742    0.92349    0.83120    1.000
    N5179    N        0.86294    0.91552    0.85423    1.000
    N5180    N        0.87289    0.99640    0.76297    1.000
    N5181    N        0.81416    0.00888    0.81354    1.000
    N5182    N        0.85374    0.79655    0.90775    1.000
    Si5183   Si       0.82957    0.77311    0.87949    1.000
    Si5184   Si       0.84573    0.79154    0.94960    1.000
    N5185    N        0.81126    0.99002    0.91979    1.000
    N5186    N        0.84642    0.88662    0.98185    1.000
    Si5187   Si       0.82024    0.90687    0.95340    1.000
    Si5188   Si       0.83184    0.98576    0.95849    1.000
    N5189    N        0.83772    0.92708    0.91864    1.000
    N5190    N        0.82139    0.94625    0.97934    1.000
    N5191    N        0.89196    0.02525    0.07245    1.000
    N5192    N        0.92626    0.08047    0.09949    1.000
    Si5193   Si       0.88888    0.09089    0.12056    1.000
    Si5194   Si       0.93001    0.04250    0.07845    1.000
    N5195    N        0.90250    0.18061    0.02057    1.000
    N5196    N        0.91316    0.24490    0.05037    1.000
    Si5197   Si       0.92801    0.21510    0.02221    1.000
    Si5198   Si       0.92114    0.10091    0.23896    1.000
    N5199    N        0.90600    0.01774    0.19766    1.000
    Si5200   Si       0.87699    0.05044    0.19244    1.000
    N5201    N        0.88654    0.07543    0.15933    1.000
    Si5202   Si       0.89007    0.11434    0.18379    1.000
    N5203    N        0.87974    0.08674    0.21851    1.000
    Si5204   Si       0.92602    0.02532    0.23528    1.000
    N5205    N        0.92908    0.11794    0.19967    1.000
    N5206    N        0.89417    0.13164    0.13568    1.000
    N5207    N        0.87003    0.20417    0.13231    1.000
    Si5208   Si       0.91798    0.22348    0.22512    1.000
    N5209    N        0.89926    0.18438    0.23212    1.000
    N5210    N        0.89155    0.23274    0.19095    1.000
    Si5211   Si       0.90616    0.21884    0.15299    1.000
    N5212    N        0.93103    0.25027    0.13809    1.000
    Si5213   Si       0.90789    0.07377    0.31722    1.000
    N5214    N        0.89755    0.09113    0.27750    1.000
    N5215    N        0.91079    0.10815    0.34383    1.000
    N5216    N        0.89554    0.00972    0.26399    1.000
    N5217    N        0.87124    0.04745    0.32197    1.000
    N5218    N        0.88020    0.20717    0.35664    1.000
    N5219    N        0.90595    0.16884    0.30841    1.000
    Si5220   Si       0.92123    0.17046    0.26655    1.000
    Si5221   Si       0.89061    0.25627    0.28828    1.000
    N5222    N        0.92403    0.10258    0.48048    1.000
    N5223    N        0.88312    0.12021    0.40822    1.000
    N5224    N        0.89365    0.06055    0.38910    1.000
    Si5225   Si       0.91434    0.09939    0.38625    1.000
    Si5226   Si       0.88383    0.08406    0.48543    1.000
    Si5227   Si       0.88021    0.18192    0.49035    1.000
    Si5228   Si       0.91146    0.19667    0.38321    1.000
    N5229    N        0.92297    0.17197    0.48991    1.000
    N5230    N        0.88297    0.19523    0.41526    1.000
    Si5231   Si       0.89130    0.23290    0.44149    1.000
    Si5232   Si       0.90118    0.03016    0.53971    1.000
    Si5233   Si       0.88380    0.08099    0.61112    1.000
    N5234    N        0.90647    0.04911    0.50040    1.000
    N5235    N        0.92515    0.08119    0.59611    1.000
    N5236    N        0.92531    0.12940    0.54450    1.000
    N5237    N        0.87081    0.05433    0.56169    1.000
    Si5238   Si       0.92156    0.18863    0.61138    1.000
    N5239    N        0.87825    0.17711    0.60923    1.000
    N5240    N        0.91868    0.20992    0.57302    1.000
    Si5241   Si       0.87620    0.19836    0.57224    1.000
    Si5242   Si       0.87893    0.03071    0.67301    1.000
    Si5243   Si       0.90126    0.12805    0.68084    1.000
    N5244    N        0.91884    0.04469    0.68589    1.000
    N5245    N        0.87387    0.10208    0.70284    1.000
    N5246    N        0.89083    0.11562    0.63926    1.000
    Si5247   Si       0.90995    0.07766    0.71276    1.000
    N5248    N        0.87164    0.04526    0.63294    1.000
    N5249    N        0.89975    0.17044    0.68063    1.000
    Si5250   Si       0.89813    0.02832    0.77586    1.000
    Si5251   Si       0.91621    0.09896    0.77917    1.000
    Si5252   Si       0.88018    0.03096    0.84578    1.000
    N5253    N        0.90681    0.06380    0.75265    1.000
    N5254    N        0.87598    0.11273    0.78536    1.000
    N5255    N        0.92160    0.03746    0.85319    1.000
    N5256    N        0.87192    0.04647    0.80489    1.000
    Si5257   Si       0.92859    0.12106    0.86000    1.000
    N5258    N        0.92938    0.10427    0.82086    1.000
    Si5259   Si       0.90675    0.21284    0.79298    1.000
    N5260    N        0.90818    0.24744    0.76429    1.000
    N5261    N        0.91874    0.23642    0.82827    1.000
    N5262    N        0.87251    0.18452    0.79019    1.000
    Si5263   Si       0.90527    0.10414    0.99264    1.000
    Si5264   Si       0.89067    0.10690    0.92531    1.000
    Si5265   Si       0.88891    0.04060    0.94973    1.000
    N5266    N        0.91910    0.12169    0.95509    1.000
    N5267    N        0.91436    0.09448    0.89094    1.000
    N5268    N        0.90440    0.06057    0.98446    1.000
    N5269    N        0.92303    0.03508    0.92576    1.000
    N5270    N        0.90809    0.22148    0.90891    1.000
    N5271    N        0.90673    0.15618    0.87248    1.000
    N5272    N        0.90135    0.35911    0.08185    1.000
    Si5273   Si       0.91512    0.32764    0.10629    1.000
    Si5274   Si       0.87472    0.30822    0.00794    1.000
    N5275    N        0.87459    0.26075    0.10049    1.000
    Si5276   Si       0.87099    0.25751    0.04802    1.000
    Si5277   Si       0.92244    0.25531    0.09235    1.000
    Si5278   Si       0.92377    0.39755    0.07934    1.000
    N5279    N        0.88612    0.41913    0.08073    1.000
    Si5280   Si       0.90701    0.42558    0.01178    1.000
    Si5281   Si       0.89640    0.46129    0.07578    1.000
    N5282    N        0.89338    0.46485    0.03059    1.000
    N5283    N        0.91972    0.46348    0.11425    1.000
    Si5284   Si       0.88634    0.50024    0.00279    1.000
    N5285    N        0.92397    0.31028    0.19916    1.000
    Si5286   Si       0.90823    0.33602    0.16718    1.000
    Si5287   Si       0.89406    0.29592    0.22668    1.000
    N5288    N        0.88293    0.31526    0.13911    1.000
    N5289    N        0.88693    0.36483    0.19058    1.000
    Si5290   Si       0.90600    0.36456    0.23212    1.000
    N5291    N        0.92415    0.48757    0.18398    1.000
    Si5292   Si       0.90298    0.49882    0.22135    1.000
    Si5293   Si       0.89551    0.48043    0.14645    1.000
    N5294    N        0.88437    0.33183    0.25038    1.000
    N5295    N        0.89021    0.37815    0.35454    1.000
    N5296    N        0.90930    0.26223    0.24807    1.000
    N5297    N        0.92594    0.25429    0.31305    1.000
    Si5298   Si       0.92030    0.41807    0.28202    1.000
    N5299    N        0.88638    0.44377    0.29460    1.000
    N5300    N        0.89995    0.40500    0.24643    1.000
    Si5301   Si       0.87075    0.46246    0.32880    1.000
    N5302    N        0.91465    0.31374    0.41176    1.000
    N5303    N        0.90517    0.27822    0.47163    1.000
    N5304    N        0.87238    0.25960    0.40817    1.000
    Si5305   Si       0.86955    0.30250    0.40452    1.000
    N5306    N        0.90101    0.35523    0.46988    1.000
    Si5307   Si       0.91450    0.31685    0.45487    1.000
    Si5308   Si       0.87047    0.36869    0.44297    1.000
    Si5309   Si       0.92515    0.41416    0.41107    1.000
    N5310    N        0.88444    0.39976    0.41739    1.000
    N5311    N        0.89303    0.30370    0.59180    1.000
    Si5312   Si       0.87890    0.26582    0.50132    1.000
    N5313    N        0.88990    0.26040    0.54266    1.000
    Si5314   Si       0.89648    0.38734    0.54153    1.000
    N5315    N        0.89869    0.40105    0.58331    1.000
    Si5316   Si       0.91671    0.49768    0.59933    1.000
    N5317    N        0.90149    0.47216    0.49836    1.000
    N5318    N        0.91672    0.45878    0.61589    1.000
    N5319    N        0.87266    0.41361    0.51844    1.000
    N5320    N        0.87943    0.30674    0.74163    1.000
    N5321    N        0.89498    0.27104    0.68129    1.000
    Si5322   Si       0.89722    0.31472    0.70190    1.000
    N5323    N        0.90144    0.35855    0.69750    1.000
    N5324    N        0.90149    0.47154    0.68164    1.000
    Si5325   Si       0.90808    0.43828    0.65308    1.000
    N5326    N        0.88091    0.40603    0.64988    1.000
    N5327    N        0.92701    0.45757    0.74393    1.000
    Si5328   Si       0.90185    0.28967    0.77265    1.000
    N5329    N        0.91830    0.35290    0.82451    1.000
    N5330    N        0.88170    0.29651    0.81094    1.000
    Si5331   Si       0.87872    0.33769    0.82916    1.000
    Si5332   Si       0.89316    0.26685    0.84222    1.000
    N5333    N        0.90247    0.48628    0.82754    1.000
    N5334    N        0.91479    0.41991    0.79856    1.000
    Si5335   Si       0.88562    0.45105    0.80495    1.000
    Si5336   Si       0.92419    0.39552    0.83206    1.000
    N5337    N        0.89663    0.39917    0.86436    1.000
    Si5338   Si       0.90034    0.49093    0.74954    1.000
    Si5339   Si       0.93278    0.50226    0.85571    1.000
    N5340    N        0.92172    0.37714    0.97393    1.000
    N5341    N        0.92068    0.34549    0.90310    1.000
    Si5342   Si       0.88359    0.32033    0.89782    1.000
    N5343    N        0.89813    0.28367    0.87972    1.000
    Si5344   Si       0.88232    0.35827    0.95863    1.000
    Si5345   Si       0.92517    0.25897    0.90292    1.000
    N5346    N        0.91698    0.31015    0.99443    1.000
    N5347    N        0.87454    0.39097    0.92970    1.000
    Si5348   Si       0.91120    0.38917    0.90482    1.000
    N5349    N        0.88020    0.45522    0.89342    1.000
    N5350    N        0.90801    0.50231    0.96463    1.000
    N5351    N        0.89972    0.59613    0.04884    1.000
    Si5352   Si       0.89896    0.60992    0.08868    1.000
    N5353    N        0.89176    0.53719    0.02284    1.000
    N5354    N        0.91895    0.58356    0.11573    1.000
    Si5355   Si       0.92501    0.53978    0.11509    1.000
    Si5356   Si       0.90454    0.73178    0.03514    1.000
    N5357    N        0.92026    0.64806    0.09578    1.000
    N5358    N        0.92402    0.70410    0.06282    1.000
    N5359    N        0.89681    0.70800    0.99745    1.000
    Si5360   Si       0.87812    0.57968    0.21992    1.000
    N5361    N        0.89007    0.54041    0.23055    1.000
    N5362    N        0.89135    0.52244    0.13632    1.000
    N5363    N        0.90803    0.61086    0.21646    1.000
    N5364    N        0.88540    0.64875    0.15316    1.000
    Si5365   Si       0.89372    0.64467    0.19496    1.000
    Si5366   Si       0.92059    0.66428    0.13600    1.000
    Si5367   Si       0.90063    0.73920    0.15071    1.000
    N5368    N        0.86912    0.71681    0.17606    1.000
    N5369    N        0.86766    0.74332    0.11959    1.000
    N5370    N        0.89735    0.57671    0.28390    1.000
    N5371    N        0.90805    0.57201    0.34958    1.000
    Si5372   Si       0.91940    0.53116    0.34120    1.000
    Si5373   Si       0.91101    0.60018    0.31631    1.000
    Si5374   Si       0.92289    0.54505    0.26528    1.000
    N5375    N        0.88599    0.50459    0.33521    1.000
    N5376    N        0.92788    0.75378    0.28523    1.000
    N5377    N        0.89281    0.64120    0.31658    1.000
    N5378    N        0.92453    0.75230    0.36401    1.000
    N5379    N        0.87222    0.73225    0.25241    1.000
    N5380    N        0.86973    0.74663    0.32562    1.000
    Si5381   Si       0.89923    0.58383    0.39083    1.000
    N5382    N        0.90544    0.57056    0.47047    1.000
    Si5383   Si       0.89265    0.53803    0.44545    1.000
    N5384    N        0.88634    0.62639    0.39313    1.000
    N5385    N        0.87497    0.55209    0.40890    1.000
    N5386    N        0.92938    0.51446    0.44382    1.000
    Si5387   Si       0.88774    0.71052    0.42347    1.000
    Si5388   Si       0.88872    0.65207    0.47476    1.000
    N5389    N        0.92260    0.63596    0.44861    1.000
    Si5390   Si       0.91530    0.71498    0.49503    1.000
    N5391    N        0.91539    0.72536    0.45336    1.000
    N5392    N        0.91871    0.69254    0.39828    1.000
    Si5393   Si       0.91896    0.64941    0.40672    1.000
    N5394    N        0.90934    0.57305    0.59153    1.000
    Si5395   Si       0.88888    0.58720    0.50664    1.000
    N5396    N        0.88025    0.52065    0.60355    1.000
    Si5397   Si       0.89384    0.54358    0.56348    1.000
    Si5398   Si       0.92260    0.61173    0.57421    1.000
    N5399    N        0.91889    0.60482    0.53195    1.000
    N5400    N        0.86921    0.55555    0.52945    1.000
    N5401    N        0.92268    0.50947    0.55625    1.000
    N5402    N        0.89204    0.63756    0.59227    1.000
    Si5403   Si       0.89680    0.67949    0.60171    1.000
    N5404    N        0.88988    0.72668    0.52965    1.000
    Si5405   Si       0.92656    0.72844    0.55382    1.000
    N5406    N        0.91821    0.67220    0.49680    1.000
    N5407    N        0.92722    0.56234    0.65819    1.000
    N5408    N        0.87283    0.51395    0.72638    1.000
    N5409    N        0.88691    0.58281    0.71237    1.000
    Si5410   Si       0.89211    0.55396    0.63287    1.000
    Si5411   Si       0.87387    0.62002    0.72938    1.000
    Si5412   Si       0.92756    0.58425    0.69613    1.000
    N5413    N        0.92330    0.68965    0.70915    1.000
    Si5414   Si       0.90267    0.71302    0.74093    1.000
    Si5415   Si       0.90717    0.72462    0.65518    1.000
    N5416    N        0.88998    0.75544    0.62769    1.000
    N5417    N        0.89478    0.75547    0.73579    1.000
    N5418    N        0.87518    0.72305    0.68431    1.000
    N5419    N        0.90657    0.68230    0.64478    1.000
    Si5420   Si       0.90640    0.66034    0.68109    1.000
    N5421    N        0.89277    0.55527    0.83278    1.000
    N5422    N        0.88586    0.62574    0.84908    1.000
    N5423    N        0.89610    0.62785    0.76761    1.000
    Si5424   Si       0.87266    0.51826    0.82230    1.000
    N5425    N        0.92862    0.52016    0.76314    1.000
    Si5426   Si       0.92647    0.62969    0.85512    1.000
    N5427    N        0.89536    0.69799    0.84967    1.000
    Si5428   Si       0.89747    0.72287    0.81225    1.000
    N5429    N        0.92413    0.70911    0.77843    1.000
    Si5430   Si       0.89366    0.59527    0.96145    1.000
    Si5431   Si       0.91073    0.53103    0.93207    1.000
    N5432    N        0.88044    0.56240    0.93796    1.000
    N5433    N        0.90887    0.51659    0.89081    1.000
    N5434    N        0.89812    0.63145    0.93747    1.000
    Si5435   Si       0.87074    0.66391    0.92924    1.000
    Si5436   Si       0.87425    0.73772    0.91725    1.000
    Si5437   Si       0.92203    0.69824    0.88558    1.000
    Si5438   Si       0.92426    0.70365    0.96244    1.000
    N5439    N        0.89789    0.70033    0.92512    1.000
    N5440    N        0.91262    0.78314    0.09086    1.000
    Si5441   Si       0.91553    0.82473    0.10265    1.000
    N5442    N        0.92405    0.83190    0.05926    1.000
    Si5443   Si       0.87247    0.77077    0.08765    1.000
    N5444    N        0.91479    0.86726    0.99463    1.000
    Si5445   Si       0.88854    0.92026    0.07001    1.000
    N5446    N        0.90262    0.96108    0.07276    1.000
    Si5447   Si       0.89171    0.99167    0.04448    1.000
    N5448    N        0.91818    0.99865    0.01000    1.000
    N5449    N        0.92581    0.89733    0.05812    1.000
    N5450    N        0.88777    0.85273    0.11984    1.000
    Si5451   Si       0.87851    0.79979    0.18305    1.000
    N5452    N        0.91193    0.77774    0.16589    1.000
    N5453    N        0.89900    0.83498    0.19850    1.000
    Si5454   Si       0.87264    0.86782    0.20576    1.000
    Si5455   Si       0.90296    0.97541    0.18415    1.000
    Si5456   Si       0.89457    0.89185    0.13729    1.000
    N5457    N        0.91904    0.96836    0.14463    1.000
    N5458    N        0.87751    0.89835    0.17573    1.000
    Si5459   Si       0.89251    0.83649    0.27335    1.000
    N5460    N        0.89747    0.85775    0.31382    1.000
    N5461    N        0.87752    0.86969    0.24849    1.000
    N5462    N        0.87208    0.80173    0.36840    1.000
    N5463    N        0.87351    0.79941    0.28816    1.000
    Si5464   Si       0.88191    0.75902    0.36481    1.000
    Si5465   Si       0.88529    0.75491    0.28840    1.000
    N5466    N        0.88561    0.92311    0.36068    1.000
    Si5467   Si       0.90848    0.97058    0.28095    1.000
    N5468    N        0.90224    0.93282    0.25862    1.000
    Si5469   Si       0.89215    0.96783    0.35079    1.000
    N5470    N        0.87813    0.96802    0.31005    1.000
    Si5471   Si       0.87548    0.89360    0.33227    1.000
    Si5472   Si       0.88857    0.86366    0.45200    1.000
    N5473    N        0.90469    0.84583    0.41411    1.000
    Si5474   Si       0.88051    0.91722    0.40340    1.000
    N5475    N        0.92013    0.92227    0.42025    1.000
    Si5476   Si       0.87570    0.97715    0.44482    1.000
    N5477    N        0.91985    0.88433    0.47209    1.000
    N5478    N        0.91589    0.98439    0.43737    1.000
    N5479    N        0.86481    0.99747    0.37013    1.000
    N5480    N        0.87236    0.95795    0.48581    1.000
    N5481    N        0.90817    0.81030    0.52389    1.000
    N5482    N        0.89409    0.82235    0.59527    1.000
    Si5483   Si       0.89123    0.83665    0.55467    1.000
    Si5484   Si       0.91345    0.78477    0.60575    1.000
    N5485    N        0.89559    0.87833    0.54142    1.000
    Si5486   Si       0.89606    0.85756    0.62065    1.000
    Si5487   Si       0.89261    0.95944    0.52561    1.000
    Si5488   Si       0.92497    0.89383    0.51369    1.000
    N5489    N        0.87611    0.94104    0.56068    1.000
    N5490    N        0.89108    0.97273    0.61658    1.000
    N5491    N        0.87133    0.99907    0.53169    1.000
    N5492    N        0.90522    0.82438    0.72273    1.000
    N5493    N        0.88363    0.84681    0.65934    1.000
    Si5494   Si       0.87273    0.83373    0.69797    1.000
    N5495    N        0.92253    0.90782    0.70827    1.000
    Si5496   Si       0.87975    0.90356    0.70120    1.000
    N5497    N        0.88270    0.98866    0.68704    1.000
    Si5498   Si       0.88808    0.95717    0.65664    1.000
    Si5499   Si       0.89279    0.78196    0.86013    1.000
    N5500    N        0.91101    0.87022    0.83088    1.000
    Si5501   Si       0.89977    0.79348    0.75568    1.000
    N5502    N        0.91295    0.76366    0.82427    1.000
    Si5503   Si       0.87557    0.86447    0.85773    1.000
    N5504    N        0.86909    0.80718    0.78108    1.000
    N5505    N        0.89920    0.82347    0.86665    1.000
    N5506    N        0.91458    0.93946    0.81434    1.000
    Si5507   Si       0.89061    0.94866    0.84823    1.000
    Si5508   Si       0.90472    0.89935    0.79988    1.000
    N5509    N        0.87724    0.98767    0.83768    1.000
    N5510    N        0.86705    0.88765    0.78109    1.000
    Si5511   Si       0.88560    0.82935    0.91208    1.000
    N5512    N        0.92717    0.83353    0.92557    1.000
    N5513    N        0.87447    0.87129    0.90145    1.000
    N5514    N        0.90488    0.75766    0.89510    1.000
    Si5515   Si       0.87465    0.85264    0.99033    1.000
    N5516    N        0.87322    0.82440    0.95840    1.000
    N5517    N        0.87315    0.99853    0.95694    1.000
    Si5518   Si       0.90534    0.97545    0.97702    1.000
    N5519    N        0.89540    0.93584    0.98570    1.000
    N5520    N        0.90830    0.94201    0.88735    1.000
    Si5521   Si       0.92564    0.90670    0.97775    1.000
    Si5522   Si       0.87555    0.91489    0.89934    1.000
    N5523    N        0.92843    0.90406    0.93605    1.000
    N5524    N        0.94929    0.05341    0.04052    1.000
    Si5525   Si       0.96941    0.09104    0.03457    1.000
    Si5526   Si       0.96892    0.09436    0.10920    1.000
    N5527    N        0.94855    0.01356    0.10422    1.000
    Si5528   Si       0.93617    0.03772    0.00372    1.000
    N5529    N        0.93747    0.11697    0.02133    1.000
    N5530    N        0.98539    0.10853    0.07092    1.000
    N5531    N        0.96547    0.23358    0.09245    1.000
    N5532    N        0.96268    0.19028    0.03735    1.000
    Si5533   Si       0.96855    0.19262    0.08012    1.000
    N5534    N        0.93637    0.16118    0.08547    1.000
    Si5535   Si       0.93152    0.15593    0.04099    1.000
    N5536    N        0.96449    0.12605    0.13881    1.000
    Si5537   Si       0.96852    0.12594    0.18328    1.000
    N5538    N        0.94597    0.06498    0.23695    1.000
    Si5539   Si       0.98214    0.02158    0.13077    1.000
    Si5540   Si       0.97451    0.24836    0.13301    1.000
    Si5541   Si       0.96898    0.19784    0.17741    1.000
    N5542    N        0.95529    0.22888    0.20353    1.000
    N5543    N        0.98789    0.16322    0.19745    1.000
    N5544    N        0.93300    0.18461    0.15723    1.000
    Si5545   Si       0.93187    0.15304    0.12832    1.000
    N5546    N        0.94159    0.05026    0.32587    1.000
    Si5547   Si       0.97745    0.04189    0.34687    1.000
    N5548    N        0.94516    0.13676    0.25925    1.000
    N5549    N        0.97363    0.14236    0.32084    1.000
    N5550    N        0.94372    0.20858    0.26498    1.000
    Si5551   Si       0.95867    0.24093    0.28592    1.000
    N5552    N        0.98467    0.23419    0.31933    1.000
    Si5553   Si       0.98490    0.13649    0.27767    1.000
    Si5554   Si       0.93219    0.14517    0.33328    1.000
    Si5555   Si       0.95269    0.24889    0.34597    1.000
    Si5556   Si       0.97677    0.07257    0.42252    1.000
    N5557    N        0.95337    0.10415    0.40386    1.000
    N5558    N        0.95424    0.04550    0.44981    1.000
    Si5559   Si       0.94420    0.06514    0.48730    1.000
    N5560    N        0.93476    0.16104    0.37391    1.000
    N5561    N        0.93906    0.22962    0.38086    1.000
    Si5562   Si       0.95458    0.18995    0.46718    1.000
    N5563    N        0.96615    0.15651    0.44123    1.000
    N5564    N        0.93404    0.22441    0.44869    1.000
    Si5565   Si       0.96485    0.14393    0.39953    1.000
    Si5566   Si       0.96189    0.23631    0.41681    1.000
    Si5567   Si       0.94665    0.04166    0.59566    1.000
    Si5568   Si       0.97223    0.02209    0.53177    1.000
    N5569    N        0.97648    0.06292    0.51717    1.000
    N5570    N        0.93759    0.01855    0.55900    1.000
    Si5571   Si       0.94294    0.12005    0.58087    1.000
    N5572    N        0.98767    0.05331    0.60139    1.000
    N5573    N        0.98042    0.13096    0.50176    1.000
    Si5574   Si       0.93708    0.13480    0.50457    1.000
    N5575    N        0.94639    0.15117    0.61023    1.000
    N5576    N        0.95249    0.24478    0.51344    1.000
    Si5577   Si       0.92893    0.24490    0.54967    1.000
    Si5578   Si       0.97154    0.11734    0.72758    1.000
    Si5579   Si       0.94764    0.01414    0.67912    1.000
    N5580    N        0.93547    0.11242    0.70429    1.000
    N5581    N        0.95027    0.01126    0.63083    1.000
    Si5582   Si       0.93599    0.25612    0.66973    1.000
    N5583    N        0.93850    0.22531    0.70323    1.000
    N5584    N        0.99022    0.15516    0.73651    1.000
    N5585    N        0.93233    0.21733    0.64293    1.000
    Si5586   Si       0.93610    0.19171    0.67647    1.000
    N5587    N        0.97442    0.17209    0.67164    1.000
    Si5588   Si       0.98254    0.15156    0.63371    1.000
    Si5589   Si       0.97129    0.10216    0.80821    1.000
    Si5590   Si       0.95549    0.02639    0.82571    1.000
    N5591    N        0.95918    0.10047    0.76659    1.000
    N5592    N        0.93639    0.01445    0.78993    1.000
    N5593    N        0.98347    0.06163    0.82299    1.000
    N5594    N        0.97087    0.12599    0.86727    1.000
    Si5595   Si       0.98512    0.16119    0.84476    1.000
    N5596    N        0.94544    0.19832    0.77313    1.000
    N5597    N        0.95652    0.19221    0.85493    1.000
    Si5598   Si       0.95801    0.23326    0.84326    1.000
    Si5599   Si       0.98377    0.17435    0.77405    1.000
    N5600    N        0.98564    0.14487    0.80615    1.000
    Si5601   Si       0.94395    0.23182    0.74485    1.000
    N5602    N        0.98038    0.25789    0.74753    1.000
    Si5603   Si       0.93406    0.05552    0.88985    1.000
    N5604    N        0.97548    0.06373    0.89605    1.000
    N5605    N        0.96927    0.03209    0.97572    1.000
    N5606    N        0.95601    0.17580    0.92221    1.000
    N5607    N        0.97814    0.17078    0.97879    1.000
    N5608    N        0.96120    0.25156    0.88185    1.000
    Si5609   Si       0.95780    0.14263    0.95171    1.000
    Si5610   Si       0.93016    0.18827    0.89078    1.000
    N5611    N        0.93349    0.23446    0.98329    1.000
    N5612    N        0.96797    0.34930    0.02525    1.000
    N5613    N        0.94130    0.29641    0.09191    1.000
    Si5614   Si       0.98321    0.30581    0.09813    1.000
    Si5615   Si       0.97695    0.39312    0.02950    1.000
    N5616    N        0.95680    0.40354    0.10725    1.000
    Si5617   Si       0.96622    0.49585    0.05583    1.000
    Si5618   Si       0.95935    0.44666    0.11305    1.000
    N5619    N        0.93816    0.40862    0.04047    1.000
    N5620    N        0.97859    0.45947    0.07583    1.000
    N5621    N        0.94992    0.50383    0.01593    1.000
    Si5622   Si       0.97552    0.37163    0.13222    1.000
    Si5623   Si       0.96311    0.32327    0.21036    1.000
    N5624    N        0.93631    0.34857    0.13730    1.000
    N5625    N        0.98349    0.34662    0.17862    1.000
    N5626    N        0.94885    0.35362    0.24181    1.000
    N5627    N        0.99105    0.28899    0.20137    1.000
    N5628    N        0.98187    0.46245    0.14686    1.000
    Si5629   Si       0.96760    0.48461    0.18152    1.000
    N5630    N        0.97392    0.45561    0.21418    1.000
    Si5631   Si       0.96451    0.36085    0.28165    1.000
    N5632    N        0.97778    0.32321    0.29632    1.000
    Si5633   Si       0.98304    0.32062    0.33920    1.000
    N5634    N        0.95686    0.35057    0.35982    1.000
    N5635    N        0.96730    0.28677    0.36176    1.000
    N5636    N        0.98743    0.26356    0.26164    1.000
    Si5637   Si       0.93201    0.38246    0.34568    1.000
    N5638    N        0.93580    0.38384    0.30425    1.000
    N5639    N        0.95635    0.44437    0.28197    1.000
    Si5640   Si       0.96390    0.47472    0.25336    1.000
    N5641    N        0.94514    0.41558    0.37129    1.000
    Si5642   Si       0.98637    0.42579    0.36553    1.000
    N5643    N        0.93174    0.50112    0.25265    1.000
    N5644    N        0.95670    0.32716    0.47279    1.000
    N5645    N        0.96380    0.27640    0.43648    1.000
    Si5646   Si       0.95429    0.30481    0.39915    1.000
    Si5647   Si       0.97857    0.36732    0.39606    1.000
    Si5648   Si       0.94409    0.25906    0.47280    1.000
    Si5649   Si       0.94015    0.36303    0.49057    1.000
    Si5650   Si       0.96978    0.41575    0.45273    1.000
    N5651    N        0.95477    0.38499    0.42686    1.000
    N5652    N        0.93785    0.44291    0.44185    1.000
    Si5653   Si       0.98393    0.49988    0.37802    1.000
    Si5654   Si       0.93217    0.47849    0.46651    1.000
    N5655    N        0.96422    0.40065    0.49238    1.000
    Si5656   Si       0.96845    0.35024    0.55457    1.000
    N5657    N        0.95698    0.33824    0.59516    1.000
    N5658    N        0.95596    0.27080    0.57232    1.000
    Si5659   Si       0.93432    0.30130    0.59837    1.000
    N5660    N        0.93255    0.36301    0.53387    1.000
    Si5661   Si       0.93160    0.47548    0.52929    1.000
    N5662    N        0.94522    0.44043    0.55170    1.000
    Si5663   Si       0.97546    0.41856    0.53063    1.000
    N5664    N        0.96483    0.40462    0.60903    1.000
    Si5665   Si       0.93334    0.42708    0.59059    1.000
    N5666    N        0.96210    0.48601    0.49949    1.000
    N5667    N        0.96249    0.35537    0.66624    1.000
    Si5668   Si       0.96569    0.31111    0.67146    1.000
    N5669    N        0.93857    0.29185    0.64048    1.000
    Si5670   Si       0.97457    0.36404    0.62574    1.000
    N5671    N        0.94374    0.31073    0.70858    1.000
    Si5672   Si       0.94111    0.37733    0.69826    1.000
    N5673    N        0.98213    0.26445    0.67651    1.000
    Si5674   Si       0.96707    0.30059    0.74402    1.000
    N5675    N        0.97623    0.47246    0.69611    1.000
    Si5676   Si       0.93707    0.45900    0.70298    1.000
    N5677    N        0.93588    0.41914    0.68302    1.000
    N5678    N        0.95548    0.38911    0.73646    1.000
    Si5679   Si       0.95402    0.33423    0.80951    1.000
    N5680    N        0.94130    0.30538    0.77784    1.000
    N5681    N        0.98269    0.36435    0.79698    1.000
    N5682    N        0.97516    0.31854    0.84385    1.000
    N5683    N        0.96247    0.40535    0.85023    1.000
    Si5684   Si       0.94331    0.42374    0.76599    1.000
    N5685    N        0.98119    0.43485    0.78271    1.000
    Si5686   Si       0.94163    0.27643    0.97787    1.000
    N5687    N        0.97298    0.33783    0.95695    1.000
    Si5688   Si       0.95347    0.32042    0.92041    1.000
    N5689    N        0.93625    0.28490    0.93592    1.000
    Si5690   Si       0.94398    0.34377    0.99002    1.000
    N5691    N        0.98052    0.28082    0.99874    1.000
    N5692    N        0.93204    0.44270    0.97971    1.000
    N5693    N        0.98397    0.40275    0.98845    1.000
    Si5694   Si       0.94916    0.40878    0.96151    1.000
    N5695    N        0.95773    0.47247    0.87238    1.000
    N5696    N        0.94358    0.41484    0.91867    1.000
    Si5697   Si       0.96721    0.43189    0.88486    1.000
    N5698    N        0.97468    0.48820    0.94680    1.000
    Si5699   Si       0.94393    0.48397    0.97763    1.000
    N5700    N        0.96075    0.57312    0.04340    1.000
    N5701    N        0.98043    0.59739    0.10528    1.000
    Si5702   Si       0.93466    0.60397    0.02628    1.000
    N5703    N        0.93190    0.51914    0.07599    1.000
    Si5704   Si       0.93235    0.53839    0.03589    1.000
    N5705    N        0.94953    0.64447    0.03330    1.000
    Si5706   Si       0.94504    0.66782    0.06705    1.000
    N5707    N        0.98588    0.67367    0.08172    1.000
    N5708    N        0.96436    0.53693    0.13055    1.000
    N5709    N        0.98935    0.52012    0.19416    1.000
    Si5710   Si       0.95179    0.60674    0.13399    1.000
    N5711    N        0.96034    0.58736    0.17364    1.000
    Si5712   Si       0.94880    0.59829    0.21404    1.000
    N5713    N        0.97621    0.62760    0.22776    1.000
    Si5714   Si       0.98589    0.55223    0.16359    1.000
    N5715    N        0.95551    0.56537    0.24153    1.000
    Si5716   Si       0.95897    0.69603    0.17301    1.000
    N5717    N        0.97641    0.70285    0.21190    1.000
    N5718    N        0.96148    0.65050    0.14398    1.000
    Si5719   Si       0.95606    0.66732    0.22982    1.000
    N5720    N        0.92859    0.66972    0.19778    1.000
    N5721    N        0.92860    0.70828    0.14392    1.000
    N5722    N        0.95095    0.61790    0.30951    1.000
    N5723    N        0.94557    0.53735    0.30585    1.000
    N5724    N        0.94415    0.69424    0.32793    1.000
    Si5725   Si       0.95214    0.71740    0.28967    1.000
    N5726    N        0.94144    0.68021    0.26834    1.000
    Si5727   Si       0.93012    0.65931    0.30513    1.000
    Si5728   Si       0.93900    0.71130    0.36528    1.000
    N5729    N        0.94325    0.51542    0.37524    1.000
    N5730    N        0.96603    0.60618    0.48233    1.000
    Si5731   Si       0.94928    0.53459    0.41311    1.000
    Si5732   Si       0.97553    0.60024    0.39003    1.000
    N5733    N        0.93879    0.57865    0.41116    1.000
    Si5734   Si       0.93545    0.59531    0.45293    1.000
    N5735    N        0.95824    0.64085    0.39054    1.000
    N5736    N        0.96911    0.68215    0.44582    1.000
    Si5737   Si       0.95459    0.65585    0.47749    1.000
    Si5738   Si       0.98330    0.67424    0.40392    1.000
    Si5739   Si       0.95269    0.71855    0.43049    1.000
    N5740    N        0.97600    0.71376    0.38951    1.000
    N5741    N        0.97414    0.75142    0.45108    1.000
    Si5742   Si       0.97769    0.75381    0.49340    1.000
    Si5743   Si       0.96654    0.60242    0.52716    1.000
    N5744    N        0.95265    0.51932    0.61044    1.000
    N5745    N        0.96561    0.56172    0.54380    1.000
    Si5746   Si       0.96574    0.52579    0.56769    1.000
    N5747    N        0.96247    0.63058    0.56622    1.000
    Si5748   Si       0.96912    0.67374    0.57837    1.000
    N5749    N        0.95082    0.72863    0.51676    1.000
    N5750    N        0.98461    0.66940    0.50443    1.000
    N5751    N        0.98938    0.65750    0.61460    1.000
    N5752    N        0.93166    0.69380    0.58131    1.000
    N5753    N        0.97839    0.58327    0.61284    1.000
    N5754    N        0.95968    0.56876    0.72101    1.000
    Si5755   Si       0.96467    0.55235    0.63620    1.000
    N5756    N        0.93452    0.62642    0.68946    1.000
    Si5757   Si       0.96083    0.70923    0.69747    1.000
    N5758    N        0.97202    0.72887    0.73388    1.000
    N5759    N        0.94763    0.73727    0.66575    1.000
    N5760    N        0.98736    0.67556    0.68699    1.000
    Si5761   Si       0.97358    0.63960    0.70569    1.000
    N5762    N        0.94418    0.58106    0.78749    1.000
    Si5763   Si       0.95843    0.55040    0.75938    1.000
    N5764    N        0.95650    0.53027    0.83136    1.000
    Si5765   Si       0.93683    0.62457    0.77738    1.000
    Si5766   Si       0.93339    0.56597    0.82788    1.000
    N5767    N        0.94164    0.58810    0.86499    1.000
    N5768    N        0.97829    0.74994    0.80175    1.000
    N5769    N        0.94790    0.64107    0.81697    1.000
    Si5770   Si       0.96888    0.71740    0.77517    1.000
    N5771    N        0.97050    0.63740    0.74937    1.000
    N5772    N        0.93113    0.59083    0.98469    1.000
    Si5773   Si       0.96559    0.57762    0.89878    1.000
    Si5774   Si       0.97229    0.58798    0.96577    1.000
    N5775    N        0.97334    0.61232    0.92556    1.000
    N5776    N        0.95005    0.55206    0.93143    1.000
    N5777    N        0.94226    0.74305    0.95576    1.000
    N5778    N        0.93669    0.65776    0.88764    1.000
    N5779    N        0.94924    0.66864    0.96268    1.000
    N5780    N        0.95800    0.72082    0.89201    1.000
    Si5781   Si       0.94205    0.64303    0.92811    1.000
    Si5782   Si       0.94392    0.75464    0.91345    1.000
    Si5783   Si       0.97340    0.65399    0.99805    1.000
    Si5784   Si       0.94054    0.79001    0.05770    1.000
    N5785    N        0.98003    0.86041    0.03517    1.000
    N5786    N        0.98275    0.87553    0.09739    1.000
    N5787    N        0.97969    0.80096    0.07412    1.000
    N5788    N        0.93672    0.76165    0.02715    1.000
    Si5789   Si       0.93552    0.86279    0.03206    1.000
    Si5790   Si       0.96587    0.90741    0.07396    1.000
    N5791    N        0.96212    0.94431    0.09812    1.000
    Si5792   Si       0.93118    0.97379    0.10254    1.000
    Si5793   Si       0.93877    0.83955    0.21917    1.000
    Si5794   Si       0.96619    0.86581    0.13471    1.000
    Si5795   Si       0.95221    0.79503    0.16053    1.000
    N5796    N        0.96469    0.81069    0.19819    1.000
    N5797    N        0.94678    0.82732    0.13234    1.000
    N5798    N        0.95178    0.88120    0.22111    1.000
    N5799    N        0.98703    0.77441    0.14700    1.000
    Si5800   Si       0.93587    0.91879    0.23515    1.000
    N5801    N        0.93698    0.89750    0.14144    1.000
    N5802    N        0.96462    0.00307    0.23762    1.000
    Si5803   Si       0.94515    0.93496    0.16109    1.000
    N5804    N        0.92917    0.94352    0.20055    1.000
    N5805    N        0.98641    0.94377    0.16220    1.000
    Si5806   Si       0.94257    0.85164    0.32729    1.000
    Si5807   Si       0.94723    0.79250    0.28506    1.000
    Si5808   Si       0.95514    0.78365    0.35744    1.000
    N5809    N        0.94375    0.80855    0.32506    1.000
    N5810    N        0.97235    0.86411    0.29701    1.000
    N5811    N        0.95655    0.86765    0.36452    1.000
    N5812    N        0.98984    0.75995    0.34096    1.000
    N5813    N        0.93088    0.82184    0.25781    1.000
    N5814    N        0.96766    0.93363    0.25962    1.000
    N5815    N        0.94764    0.97922    0.30019    1.000
    Si5816   Si       0.96441    0.96809    0.33812    1.000
    Si5817   Si       0.97793    0.97590    0.26779    1.000
    N5818    N        0.97561    0.92814    0.32999    1.000
    Si5819   Si       0.98360    0.90327    0.36537    1.000
    Si5820   Si       0.98157    0.90748    0.29175    1.000
    N5821    N        0.93292    0.97341    0.36639    1.000
    N5822    N        0.97088    0.86801    0.42955    1.000
    Si5823   Si       0.94721    0.84516    0.40095    1.000
    N5824    N        0.95919    0.80501    0.39703    1.000
    Si5825   Si       0.98558    0.78568    0.42765    1.000
    Si5826   Si       0.95170    0.00334    0.45461    1.000
    Si5827   Si       0.95034    0.90310    0.44467    1.000
    N5828    N        0.97713    0.93087    0.39650    1.000
    N5829    N        0.97343    0.93256    0.46453    1.000
    Si5830   Si       0.94127    0.95942    0.40749    1.000
    N5831    N        0.97898    0.98464    0.42426    1.000
    N5832    N        0.96327    0.99547    0.49704    1.000
    N5833    N        0.95618    0.83050    0.57012    1.000
    Si5834   Si       0.94453    0.79851    0.54283    1.000
    N5835    N        0.97900    0.79443    0.51611    1.000
    Si5836   Si       0.95662    0.83577    0.61454    1.000
    Si5837   Si       0.98333    0.85766    0.55293    1.000
    N5838    N        0.96312    0.87673    0.52180    1.000
    N5839    N        0.93372    0.76768    0.57167    1.000
    N5840    N        0.93713    0.87278    0.62172    1.000
    N5841    N        0.95331    0.94189    0.59437    1.000
    Si5842   Si       0.96509    0.95095    0.50233    1.000
    Si5843   Si       0.93299    0.97241    0.61625    1.000
    Si5844   Si       0.98818    0.93072    0.57122    1.000
    N5845    N        0.92860    0.93637    0.51731    1.000
    Si5846   Si       0.94717    0.82049    0.73003    1.000
    N5847    N        0.94089    0.80064    0.63447    1.000
    N5848    N        0.96527    0.78974    0.70908    1.000
    N5849    N        0.97245    0.85427    0.72886    1.000
    Si5850   Si       0.96065    0.77786    0.66719    1.000
    N5851    N        0.98170    0.93142    0.70936    1.000
    Si5852   Si       0.95560    0.89455    0.73496    1.000
    N5853    N        0.93184    0.94480    0.65367    1.000
    Si5854   Si       0.94151    0.94556    0.69645    1.000
    Si5855   Si       0.95316    0.91220    0.62808    1.000
    N5856    N        0.94499    0.98577    0.71248    1.000
    Si5857   Si       0.94845    0.78132    0.80810    1.000
    N5858    N        0.96119    0.80921    0.83890    1.000
    N5859    N        0.93928    0.79913    0.76954    1.000
    Si5860   Si       0.93583    0.84245    0.85408    1.000
    N5861    N        0.93567    0.89181    0.77215    1.000
    Si5862   Si       0.95501    0.95688    0.81596    1.000
    N5863    N        0.96700    0.96188    0.77451    1.000
    N5864    N        0.97114    0.98780    0.84252    1.000
    Si5865   Si       0.95737    0.99873    0.75422    1.000
    N5866    N        0.97454    0.91832    0.82973    1.000
    Si5867   Si       0.98220    0.90271    0.86830    1.000
    N5868    N        0.95516    0.87201    0.87852    1.000
    N5869    N        0.97576    0.78498    0.91111    1.000
    Si5870   Si       0.96473    0.81570    0.93874    1.000
    N5871    N        0.96420    0.80519    0.97909    1.000
    Si5872   Si       0.94952    0.86947    0.92053    1.000
    Si5873   Si       0.96070    0.76379    0.98977    1.000
    N5874    N        0.98742    0.85422    0.93354    1.000
    N5875    N        0.93729    0.97155    0.94748    1.000
    Si5876   Si       0.94193    0.94122    0.91711    1.000
    N5877    N        0.98313    0.93801    0.89734    1.000
    N5878    N        0.96797    0.91087    0.98935    1.000
    Si5879   Si       0.95597    0.00950    0.94099    1.000
