# CIF file generated by openbabel 3.1.1, see https://openbabel.org
data_I
_chemical_name_common '3.01-66.aims'
_cell_length_a 39.9118
_cell_length_b 39.9118
_cell_length_c 39.9118
_cell_angle_alpha 90
_cell_angle_beta 90
_cell_angle_gamma 90
loop_
    _atom_site_label
    _atom_site_type_symbol
    _atom_site_fract_x
    _atom_site_fract_y
    _atom_site_fract_z
    _atom_site_occupancy
    N0       N        0.02329    0.10935    0.03221    1.000
    N1       N        0.03580    0.04706    0.02520    1.000
    N2       N        0.10563    0.02980    0.04089    1.000
    Si3      Si       0.01541    0.07824    0.00253    1.000
    N4       N        0.10743    0.09548    0.02134    1.000
    N5       N        0.21478    0.04118    0.03388    1.000
    Si6      Si       0.13312    0.06501    0.03584    1.000
    N7       N        0.19897    0.12829    0.03117    1.000
    Si8      Si       0.18950    0.02564    0.00197    1.000
    Si9      Si       0.22373    0.11272    0.99765    1.000
    Si10     Si       0.08147    0.25730    0.00197    1.000
    Si11     Si       0.02477    0.21274    0.00061    1.000
    Si12     Si       0.04437    0.14312    0.01480    1.000
    N13      N        0.01313    0.17477    0.01813    1.000
    N14      N        0.06935    0.21525    0.00796    1.000
    N15      N        0.07864    0.15659    0.03798    1.000
    Si16     Si       0.08730    0.19862    0.04460    1.000
    N17      N        0.01820    0.24315    0.03310    1.000
    N18      N        0.18019    0.24558    0.03587    1.000
    N19      N        0.12799    0.21158    0.04180    1.000
    Si20     Si       0.15242    0.22803    0.00806    1.000
    Si21     Si       0.19810    0.17256    0.02743    1.000
    N22      N        0.17392    0.19217    0.99793    1.000
    N23      N        0.01062    0.07420    0.08413    1.000
    N24      N        0.07462    0.09591    0.07967    1.000
    N25      N        0.05601    0.02623    0.08854    1.000
    Si26     Si       0.00724    0.11488    0.07112    1.000
    Si27     Si       0.04922    0.06272    0.06642    1.000
    Si28     Si       0.06028    0.11956    0.11404    1.000
    Si29     Si       0.09950    0.12283    0.05489    1.000
    Si30     Si       0.18896    0.03797    0.06878    1.000
    Si31     Si       0.17481    0.11333    0.06561    1.000
    N32      N        0.20932    0.04891    0.10424    1.000
    N33      N        0.13421    0.13094    0.07727    1.000
    N34      N        0.19051    0.11679    0.10691    1.000
    N35      N        0.16354    0.07218    0.06338    1.000
    N36      N        0.02663    0.14135    0.09800    1.000
    N37      N        0.99739    0.20746    0.08969    1.000
    Si38     Si       0.02768    0.23073    0.07189    1.000
    N39      N        0.06544    0.21074    0.07888    1.000
    N40      N        0.15537    0.24048    0.10366    1.000
    N41      N        0.18618    0.18517    0.06930    1.000
    Si42     Si       0.16229    0.22011    0.06791    1.000
    Si43     Si       0.19271    0.16171    0.10690    1.000
    N44      N        0.05208    0.10411    0.15252    1.000
    Si45     Si       0.00300    0.01765    0.16608    1.000
    Si46     Si       0.01773    0.09077    0.17420    1.000
    N47      N        0.98737    0.02378    0.12431    1.000
    N48      N        0.13112    0.11382    0.15379    1.000
    Si49     Si       0.19795    0.08079    0.13293    1.000
    N50      N        0.17036    0.05795    0.15734    1.000
    N51      N        0.10000    0.22174    0.14187    1.000
    N52      N        0.03736    0.19071    0.14291    1.000
    Si53     Si       0.07232    0.19585    0.11946    1.000
    N54      N        0.04016    0.25520    0.15818    1.000
    Si55     Si       0.00537    0.17400    0.11596    1.000
    Si56     Si       0.08367    0.25952    0.15282    1.000
    N57      N        0.08776    0.15314    0.11719    1.000
    Si58     Si       0.14323    0.21619    0.13846    1.000
    N59      N        0.23318    0.17182    0.11383    1.000
    Si60     Si       0.12891    0.14302    0.12118    1.000
    N61      N        0.15481    0.17567    0.12545    1.000
    N62      N        0.01596    0.11296    0.21188    1.000
    N63      N        0.07064    0.07283    0.21719    1.000
    Si64     Si       0.04513    0.03972    0.21719    1.000
    N65      N        0.02062    0.04994    0.18544    1.000
    Si66     Si       0.05832    0.11227    0.22925    1.000
    Si67     Si       0.11048    0.05982    0.22698    1.000
    N68      N        0.12938    0.03084    0.20334    1.000
    N69      N        0.13437    0.09507    0.22007    1.000
    Si70     Si       0.15522    0.09383    0.18285    1.000
    N71      N        0.19500    0.11227    0.18473    1.000
    Si72     Si       0.16032    0.01997    0.17602    1.000
    N73      N        0.04133    0.20366    0.21063    1.000
    N74      N        0.08636    0.14880    0.22937    1.000
    Si75     Si       0.07885    0.19221    0.23130    1.000
    Si76     Si       0.02343    0.21786    0.17348    1.000
    N77      N        0.11744    0.21530    0.22959    1.000
    N78      N        0.16097    0.23097    0.17449    1.000
    Si79     Si       0.19581    0.15167    0.20521    1.000
    N80      N        0.15510    0.16086    0.21494    1.000
    N81      N        0.21046    0.17810    0.17633    1.000
    Si82     Si       0.15438    0.20607    0.21066    1.000
    N83      N        0.01425    0.03007    0.24913    1.000
    N84      N        0.09860    0.04259    0.26594    1.000
    N85      N        0.06321    0.10485    0.27297    1.000
    N86      N        0.19261    0.01267    0.27235    1.000
    N87      N        0.19617    0.08884    0.27762    1.000
    Si88     Si       0.22842    0.10916    0.25875    1.000
    N89      N        0.13236    0.13165    0.28407    1.000
    N90      N        0.05965    0.20833    0.26848    1.000
    Si91     Si       0.01945    0.21589    0.24673    1.000
    Si92     Si       0.05636    0.25485    0.27672    1.000
    N93      N        0.02195    0.25846    0.24949    1.000
    Si94     Si       0.12346    0.23917    0.26561    1.000
    Si95     Si       0.20901    0.18442    0.26422    1.000
    N96      N        0.24109    0.20102    0.29062    1.000
    N97      N        0.18799    0.21370    0.24040    1.000
    Si98     Si       0.12755    0.13410    0.23611    1.000
    N99      N        0.21984    0.14979    0.24284    1.000
    N100     N        0.04067    0.05620    0.31304    1.000
    N101     N        0.09777    0.09196    0.32373    1.000
    N102     N        0.00862    0.11747    0.32901    1.000
    Si103    Si       0.08992    0.12743    0.29779    1.000
    Si104    Si       0.02321    0.07918    0.34588    1.000
    Si105    Si       0.07809    0.06758    0.29387    1.000
    Si106    Si       0.00780    0.03688    0.29144    1.000
    Si107    Si       0.14545    0.03242    0.34181    1.000
    N108     N        0.15436    0.05576    0.30809    1.000
    N109     N        0.21837    0.05339    0.33185    1.000
    Si110    Si       0.15947    0.09855    0.30108    1.000
    N111     N        0.17481    0.10809    0.34057    1.000
    Si112    Si       0.19566    0.04831    0.29349    1.000
    N113     N        0.06294    0.24937    0.31753    1.000
    Si114    Si       0.02892    0.15429    0.33614    1.000
    N115     N        0.01230    0.19206    0.32319    1.000
    Si116    Si       0.07807    0.20154    0.30955    1.000
    N117     N        0.06698    0.15828    0.31397    1.000
    N118     N        0.14314    0.16544    0.34920    1.000
    Si119    Si       0.14496    0.17097    0.30589    1.000
    Si120    Si       0.22398    0.17557    0.32255    1.000
    N121     N        0.18695    0.17201    0.29862    1.000
    N122     N        0.11985    0.20476    0.29459    1.000
    N123     N        0.05211    0.09073    0.37745    1.000
    Si124    Si       0.09145    0.07324    0.36288    1.000
    N125     N        0.99652    0.05093    0.36272    1.000
    Si126    Si       0.03837    0.12400    0.40366    1.000
    N127     N        0.10270    0.03182    0.35190    1.000
    N128     N        0.06038    0.00993    0.40420    1.000
    Si129    Si       0.01801    0.00471    0.41123    1.000
    N130     N        0.11385    0.08047    0.40035    1.000
    Si131    Si       0.19736    0.07662    0.36063    1.000
    N132     N        0.16966    0.04492    0.37694    1.000
    N133     N        0.21679    0.09765    0.39385    1.000
    Si134    Si       0.07006    0.24212    0.35910    1.000
    N135     N        0.03064    0.15882    0.38047    1.000
    Si136    Si       0.01780    0.19843    0.39698    1.000
    N137     N        0.03461    0.23591    0.38393    1.000
    N138     N        0.08739    0.20369    0.35484    1.000
    N139     N        0.21045    0.17465    0.36785    1.000
    N140     N        0.15402    0.21675    0.39349    1.000
    Si141    Si       0.17673    0.14512    0.36723    1.000
    N142     N        0.21863    0.24330    0.38668    1.000
    Si143    Si       0.19654    0.20664    0.39531    1.000
    Si144    Si       0.12194    0.19008    0.37706    1.000
    N145     N        0.16489    0.13801    0.40798    1.000
    Si146    Si       0.08145    0.01874    0.44107    1.000
    N147     N        0.08090    0.06030    0.45770    1.000
    Si148    Si       0.09662    0.09534    0.43651    1.000
    N149     N        0.00192    0.03883    0.43241    1.000
    N150     N        0.00555    0.11793    0.43086    1.000
    N151     N        0.06611    0.12627    0.43894    1.000
    Si152    Si       0.03092    0.11825    0.46636    1.000
    N153     N        0.17830    0.06765    0.43791    1.000
    Si154    Si       0.18981    0.10772    0.42746    1.000
    N155     N        0.12442    0.01696    0.42985    1.000
    N156     N        0.13010    0.11433    0.45863    1.000
    Si157    Si       0.14556    0.05004    0.41309    1.000
    N158     N        0.21133    0.13015    0.45852    1.000
    Si159    Si       0.07203    0.17147    0.44021    1.000
    N160     N        0.03633    0.19741    0.43638    1.000
    N161     N        0.10582    0.17312    0.41356    1.000
    Si162    Si       0.02174    0.23107    0.46080    1.000
    Si163    Si       0.13596    0.15207    0.43729    1.000
    Si164    Si       0.23671    0.23486    0.44604    1.000
    N165     N        0.15598    0.17698    0.46613    1.000
    N166     N        0.21182    0.20152    0.43705    1.000
    Si167    Si       0.19828    0.17166    0.46632    1.000
    N168     N        0.02584    0.08041    0.48505    1.000
    Si169    Si       0.06903    0.06848    0.49779    1.000
    N170     N        0.09162    0.10645    0.50909    1.000
    N171     N        0.08506    0.03392    0.51996    1.000
    N172     N        0.21732    0.01391    0.47401    1.000
    N173     N        0.22231    0.07336    0.49487    1.000
    N174     N        0.15435    0.05998    0.49732    1.000
    Si175    Si       0.13651    0.09960    0.50056    1.000
    Si176    Si       0.19115    0.04920    0.47718    1.000
    N177     N        0.99321    0.21738    0.49231    1.000
    Si178    Si       0.07468    0.14623    0.50278    1.000
    N179     N        0.03314    0.15240    0.49115    1.000
    Si180    Si       0.00418    0.17809    0.51174    1.000
    N181     N        0.09388    0.17568    0.47823    1.000
    N182     N        0.05042    0.25675    0.48143    1.000
    Si183    Si       0.12745    0.19756    0.49205    1.000
    N184     N        0.11743    0.23919    0.48562    1.000
    N185     N        0.20394    0.17833    0.51119    1.000
    Si186    Si       0.21945    0.21642    0.51795    1.000
    N187     N        0.19205    0.25028    0.51578    1.000
    Si188    Si       0.09703    0.11043    0.55507    1.000
    N189     N        0.00588    0.05321    0.55474    1.000
    Si190    Si       0.10658    0.03511    0.56189    1.000
    N191     N        0.00752    0.12401    0.56040    1.000
    Si192    Si       0.02873    0.01695    0.56571    1.000
    N193     N        0.06333    0.09524    0.57753    1.000
    N194     N        0.06810    0.02617    0.58184    1.000
    Si195    Si       0.01812    0.08758    0.58252    1.000
    N196     N        0.12279    0.07509    0.56359    1.000
    N197     N        0.18850    0.06061    0.55607    1.000
    Si198    Si       0.16183    0.09444    0.56730    1.000
    Si199    Si       0.22526    0.06790    0.53742    1.000
    Si200    Si       0.18565    0.01941    0.57157    1.000
    N201     N        0.15929    0.12279    0.52954    1.000
    N202     N        0.14183    0.01442    0.58338    1.000
    N203     N        0.23834    0.10354    0.55865    1.000
    Si204    Si       0.03798    0.15575    0.56852    1.000
    N205     N        0.07510    0.15614    0.54564    1.000
    N206     N        0.01220    0.18630    0.55272    1.000
    Si207    Si       0.00650    0.22315    0.57645    1.000
    Si208    Si       0.10739    0.17748    0.56359    1.000
    N209     N        0.02286    0.25498    0.54852    1.000
    N210     N        0.13587    0.18570    0.53230    1.000
    Si211    Si       0.20506    0.20738    0.58617    1.000
    N212     N        0.16882    0.23205    0.57770    1.000
    Si213    Si       0.17285    0.16149    0.53661    1.000
    N214     N        0.19539    0.16563    0.57436    1.000
    N215     N        0.11855    0.13736    0.58412    1.000
    Si216    Si       0.06968    0.06229    0.61070    1.000
    N217     N        0.02793    0.05811    0.61782    1.000
    N218     N        0.09939    0.03706    0.63874    1.000
    N219     N        0.07565    0.09840    0.63886    1.000
    Si220    Si       0.99525    0.07030    0.64207    1.000
    N221     N        0.21996    0.01058    0.59709    1.000
    N222     N        0.18364    0.10586    0.60341    1.000
    Si223    Si       0.13910    0.02386    0.62800    1.000
    N224     N        0.17829    0.04186    0.63445    1.000
    Si225    Si       0.21524    0.02095    0.63870    1.000
    Si226    Si       0.21932    0.13066    0.58845    1.000
    Si227    Si       0.18102    0.08409    0.64183    1.000
    Si228    Si       0.09015    0.13274    0.61890    1.000
    N229     N        0.10225    0.20739    0.59450    1.000
    N230     N        0.05869    0.16061    0.60800    1.000
    Si231    Si       0.06423    0.20233    0.61877    1.000
    N232     N        0.02989    0.23010    0.61418    1.000
    N233     N        0.22054    0.21685    0.62309    1.000
    Si234    Si       0.13495    0.23252    0.60541    1.000
    N235     N        0.15079    0.21523    0.64071    1.000
    Si236    Si       0.05339    0.09403    0.67571    1.000
    N237     N        0.01160    0.09924    0.67002    1.000
    Si238    Si       0.07768    0.02115    0.67552    1.000
    N239     N        0.05229    0.05333    0.69332    1.000
    N240     N        0.08096    0.11258    0.70172    1.000
    Si241    Si       0.11927    0.11635    0.68143    1.000
    Si242    Si       0.23125    0.06824    0.69279    1.000
    N243     N        0.14191    0.08800    0.65850    1.000
    N244     N        0.21108    0.09840    0.66941    1.000
    Si245    Si       0.99032    0.13601    0.67958    1.000
    N246     N        0.02103    0.16316    0.67129    1.000
    N247     N        0.07942    0.19995    0.65973    1.000
    Si248    Si       0.04961    0.18705    0.68979    1.000
    N249     N        0.02973    0.22523    0.70111    1.000
    N250     N        0.14470    0.19025    0.69800    1.000
    Si251    Si       0.19124    0.20794    0.65763    1.000
    N252     N        0.19435    0.16463    0.66633    1.000
    Si253    Si       0.12050    0.18967    0.66088    1.000
    Si254    Si       0.22789    0.13797    0.66099    1.000
    N255     N        0.11542    0.14883    0.65101    1.000
    N256     N        0.20611    0.23533    0.68830    1.000
    N257     N        0.01416    0.02071    0.73821    1.000
    Si258    Si       0.04484    0.05203    0.73512    1.000
    N259     N        0.03703    0.09456    0.74965    1.000
    Si260    Si       0.06467    0.12716    0.73821    1.000
    N261     N        0.10825    0.01019    0.70459    1.000
    N262     N        0.20846    0.03669    0.71179    1.000
    Si263    Si       0.21893    0.04673    0.75336    1.000
    N264     N        0.14548    0.12688    0.71407    1.000
    Si265    Si       0.13323    0.11677    0.75530    1.000
    N266     N        0.24425    0.08148    0.73362    1.000
    Si267    Si       0.05695    0.24161    0.72897    1.000
    N268     N        0.05435    0.16817    0.72720    1.000
    N269     N        0.09358    0.21812    0.73629    1.000
    Si270    Si       0.17372    0.15972    0.70330    1.000
    N271     N        0.20376    0.16348    0.73585    1.000
    Si272    Si       0.13402    0.21918    0.72672    1.000
    N273     N        0.14298    0.25851    0.70953    1.000
    Si274    Si       0.10098    0.05590    0.79265    1.000
    N275     N        0.01093    0.06439    0.80118    1.000
    Si276    Si       0.00117    0.09359    0.77186    1.000
    N277     N        0.07710    0.09121    0.80596    1.000
    N278     N        0.07667    0.03427    0.76284    1.000
    Si279    Si       0.18830    0.10409    0.80241    1.000
    N280     N        0.19298    0.06739    0.78205    1.000
    Si281    Si       0.15985    0.03999    0.77419    1.000
    N282     N        0.22764    0.12095    0.79531    1.000
    N283     N        0.13536    0.02577    0.80586    1.000
    N284     N        0.13091    0.07407    0.76318    1.000
    N285     N        0.16470    0.13256    0.78127    1.000
    Si286    Si       0.07558    0.13295    0.80466    1.000
    N287     N        0.09624    0.13784    0.76525    1.000
    Si288    Si       0.07027    0.18833    0.76344    1.000
    N289     N        0.03944    0.22623    0.76666    1.000
    Si290    Si       0.05807    0.23668    0.80324    1.000
    N291     N        0.04463    0.16392    0.79422    1.000
    N292     N        0.09318    0.20854    0.80265    1.000
    Si293    Si       0.00083    0.16754    0.79438    1.000
    Si294    Si       0.99620    0.23447    0.76234    1.000
    N295     N        0.20261    0.25333    0.77219    1.000
    Si296    Si       0.23279    0.22463    0.77842    1.000
    Si297    Si       0.18308    0.17232    0.77207    1.000
    N298     N        0.21154    0.18963    0.79838    1.000
    Si299    Si       0.13526    0.22029    0.79524    1.000
    N300     N        0.15370    0.20059    0.76204    1.000
    N301     N        0.07331    0.03888    0.84150    1.000
    N302     N        0.04127    0.08966    0.86438    1.000
    Si303    Si       0.04573    0.06926    0.82684    1.000
    Si304    Si       0.07758    0.06824    0.87671    1.000
    N305     N        0.99293    0.01974    0.85229    1.000
    N306     N        0.16801    0.09976    0.84165    1.000
    N307     N        0.17879    0.03434    0.86470    1.000
    Si308    Si       0.13541    0.12384    0.85839    1.000
    Si309    Si       0.15826    0.06990    0.87302    1.000
    N310     N        0.98820    0.19017    0.83207    1.000
    N311     N        0.04567    0.23199    0.84463    1.000
    Si312    Si       0.01139    0.22239    0.86699    1.000
    N313     N        0.10609    0.14239    0.83372    1.000
    Si314    Si       0.07853    0.23764    0.87153    1.000
    Si315    Si       0.11178    0.18467    0.83887    1.000
    Si316    Si       0.23386    0.25868    0.84554    1.000
    Si317    Si       0.19432    0.19843    0.84004    1.000
    N318     N        0.20593    0.15815    0.85359    1.000
    N319     N        0.15237    0.19940    0.82953    1.000
    N320     N        0.22046    0.22251    0.86433    1.000
    Si321    Si       0.23413    0.15538    0.82008    1.000
    N322     N        0.01648    0.12358    0.92657    1.000
    N323     N        0.07690    0.03579    0.90537    1.000
    Si324    Si       0.00801    0.10629    0.88472    1.000
    N325     N        0.01601    0.01445    0.91849    1.000
    N326     N        0.23600    0.06809    0.89909    1.000
    Si327    Si       0.12750    0.11443    0.91733    1.000
    N328     N        0.16891    0.07427    0.91827    1.000
    Si329    Si       0.20958    0.08770    0.92671    1.000
    N330     N        0.21532    0.12986    0.91767    1.000
    N331     N        0.11781    0.08733    0.87882    1.000
    Si332    Si       0.21760    0.03255    0.88054    1.000
    Si333    Si       0.09371    0.18479    0.91748    1.000
    N334     N        0.00038    0.18839    0.89368    1.000
    N335     N        0.08075    0.24279    0.91499    1.000
    N336     N        0.01898    0.24693    0.90504    1.000
    N337     N        0.09063    0.14002    0.91898    1.000
    Si338    Si       0.01870    0.20993    0.92788    1.000
    N339     N        0.09381    0.19613    0.87553    1.000
    N340     N        0.15091    0.14035    0.89401    1.000
    N341     N        0.19216    0.19436    0.91653    1.000
    Si342    Si       0.22857    0.21540    0.90681    1.000
    Si343    Si       0.18990    0.15636    0.89442    1.000
    N344     N        0.08685    0.05094    0.97090    1.000
    Si345    Si       0.09320    0.09418    0.98127    1.000
    N346     N        0.02400    0.06575    0.96080    1.000
    N347     N        0.05987    0.12430    0.97880    1.000
    Si348    Si       0.05226    0.03273    0.94446    1.000
    Si349    Si       0.10996    0.02617    0.99704    1.000
    Si350    Si       0.99062    0.09375    0.94492    1.000
    N351     N        0.20188    0.08892    0.97007    1.000
    N352     N        0.12886    0.10296    0.95873    1.000
    Si353    Si       0.16119    0.07417    0.96269    1.000
    N354     N        0.15127    0.04636    0.99868    1.000
    N355     N        0.19829    0.01824    0.96209    1.000
    N356     N        0.00086    0.22085    0.96504    1.000
    N357     N        0.05290    0.18387    0.93845    1.000
    Si358    Si       0.05214    0.14078    0.93989    1.000
    Si359    Si       0.11285    0.24531    0.94334    1.000
    N360     N        0.12125    0.25002    0.98472    1.000
    N361     N        0.12713    0.20307    0.94179    1.000
    N362     N        0.18710    0.24493    0.95987    1.000
    Si363    Si       0.16943    0.20551    0.95182    1.000
    N364     N        0.08735    0.36470    0.02606    1.000
    Si365    Si       0.00472    0.34832    0.02051    1.000
    N366     N        0.07992    0.28688    0.03390    1.000
    Si367    Si       0.10039    0.32477    0.03937    1.000
    N368     N        0.00909    0.31220    0.04356    1.000
    N369     N        0.02036    0.37870    0.04404    1.000
    Si370    Si       0.22073    0.26191    0.04154    1.000
    N371     N        0.21470    0.30420    0.04777    1.000
    N372     N        0.14174    0.32059    0.02740    1.000
    N373     N        0.19701    0.36335    0.04831    1.000
    Si374    Si       0.18574    0.38332    0.01034    1.000
    N375     N        0.14552    0.37968    0.99492    1.000
    Si376    Si       0.23884    0.33972    0.04068    1.000
    N377     N        0.09518    0.50951    0.00892    1.000
    N378     N        0.10753    0.43862    0.01749    1.000
    Si379    Si       0.10918    0.39826    0.00491    1.000
    N380     N        0.19500    0.42430    0.01806    1.000
    Si381    Si       0.21707    0.50673    0.02155    1.000
    Si382    Si       0.21917    0.43832    0.05109    1.000
    N383     N        0.07260    0.33442    0.07694    1.000
    N384     N        0.03419    0.26969    0.09062    1.000
    Si385    Si       0.04729    0.29919    0.06154    1.000
    Si386    Si       0.06046    0.37396    0.06034    1.000
    N387     N        0.16549    0.31286    0.09407    1.000
    Si388    Si       0.18928    0.37979    0.08918    1.000
    N389     N        0.14788    0.38409    0.09238    1.000
    Si390    Si       0.17601    0.32170    0.05340    1.000
    N391     N        0.01111    0.43492    0.08728    1.000
    N392     N        0.08114    0.40810    0.07604    1.000
    Si393    Si       0.03561    0.47028    0.09271    1.000
    N394     N        0.06207    0.47481    0.05950    1.000
    Si395    Si       0.09203    0.44555    0.05704    1.000
    Si396    Si       0.99148    0.41132    0.05553    1.000
    Si397    Si       0.21267    0.49750    0.09706    1.000
    Si398    Si       0.13446    0.49561    0.09644    1.000
    N399     N        0.20651    0.41928    0.08874    1.000
    Si400    Si       0.11845    0.41364    0.09824    1.000
    N401     N        0.21241    0.48017    0.05698    1.000
    N402     N        0.12703    0.45417    0.08120    1.000
    Si403    Si       0.02249    0.35167    0.15190    1.000
    N404     N        0.03879    0.31866    0.13254    1.000
    Si405    Si       0.01840    0.28135    0.12961    1.000
    N406     N        0.10221    0.34392    0.14761    1.000
    Si407    Si       0.07874    0.32297    0.11767    1.000
    N408     N        0.09940    0.28382    0.11891    1.000
    N409     N        0.21616    0.28866    0.14599    1.000
    N410     N        0.15492    0.29344    0.15255    1.000
    Si411    Si       0.18840    0.32137    0.13829    1.000
    N412     N        0.21033    0.35765    0.12204    1.000
    Si413    Si       0.21039    0.37488    0.16535    1.000
    Si414    Si       0.14236    0.28042    0.11212    1.000
    N415     N        0.04684    0.38555    0.14155    1.000
    Si416    Si       0.08728    0.38429    0.15761    1.000
    N417     N        0.05045    0.45747    0.13282    1.000
    Si418    Si       0.02578    0.42111    0.12711    1.000
    N419     N        0.11207    0.41647    0.14088    1.000
    Si420    Si       0.22447    0.42846    0.12732    1.000
    Si421    Si       0.11864    0.45426    0.16004    1.000
    N422     N        0.23015    0.47210    0.12946    1.000
    N423     N        0.12447    0.48968    0.13844    1.000
    N424     N        0.20010    0.41619    0.16204    1.000
    N425     N        0.01763    0.34916    0.19492    1.000
    N426     N        0.09308    0.28314    0.18709    1.000
    Si427    Si       0.09562    0.29759    0.22759    1.000
    N428     N        0.19162    0.28237    0.21169    1.000
    N429     N        0.13099    0.32511    0.21441    1.000
    Si430    Si       0.17565    0.32297    0.21338    1.000
    N431     N        0.18370    0.34436    0.17714    1.000
    Si432    Si       0.18561    0.26818    0.17063    1.000
    Si433    Si       0.12191    0.31331    0.17053    1.000
    Si434    Si       0.23411    0.35839    0.23258    1.000
    N435     N        0.00020    0.48819    0.17662    1.000
    N436     N        0.08452    0.38672    0.20163    1.000
    Si437    Si       0.05871    0.41441    0.22220    1.000
    N438     N        0.08865    0.47511    0.18681    1.000
    N439     N        0.03376    0.43731    0.19464    1.000
    Si440    Si       0.99226    0.44510    0.18392    1.000
    Si441    Si       0.11244    0.46508    0.22044    1.000
    Si442    Si       0.04658    0.47695    0.17173    1.000
    Si443    Si       0.21994    0.50919    0.22443    1.000
    Si444    Si       0.18840    0.43846    0.19721    1.000
    N445     N        0.14617    0.44987    0.19452    1.000
    N446     N        0.19184    0.40750    0.22776    1.000
    N447     N        0.21722    0.46998    0.20233    1.000
    N448     N        0.09267    0.26903    0.26037    1.000
    N449     N        0.00068    0.32659    0.25783    1.000
    Si450    Si       0.03113    0.34834    0.23644    1.000
    N451     N        0.07316    0.33458    0.23962    1.000
    Si452    Si       0.99117    0.28746    0.24156    1.000
    Si453    Si       0.10516    0.36043    0.22917    1.000
    Si454    Si       0.23861    0.30676    0.28306    1.000
    N455     N        0.19430    0.34717    0.24441    1.000
    N456     N        0.23473    0.26579    0.26831    1.000
    N457     N        0.15974    0.26393    0.27066    1.000
    Si458    Si       0.19665    0.25534    0.24779    1.000
    N459     N        0.12909    0.38262    0.25733    1.000
    N460     N        0.99774    0.49154    0.24733    1.000
    N461     N        0.03267    0.39074    0.24869    1.000
    N462     N        0.08254    0.44356    0.24337    1.000
    Si463    Si       0.01445    0.40700    0.28468    1.000
    Si464    Si       0.01518    0.50271    0.28656    1.000
    Si465    Si       0.07623    0.45034    0.28571    1.000
    N466     N        0.05800    0.49070    0.28644    1.000
    Si467    Si       0.17579    0.38304    0.25792    1.000
    Si468    Si       0.15412    0.50470    0.27086    1.000
    N469     N        0.12545    0.50187    0.23938    1.000
    N470     N        0.99688    0.37326    0.30897    1.000
    N471     N        0.10390    0.37983    0.32609    1.000
    N472     N        0.20176    0.30946    0.30639    1.000
    N473     N        0.13304    0.31809    0.30945    1.000
    Si474    Si       0.16321    0.28864    0.30570    1.000
    N475     N        0.22736    0.37010    0.32923    1.000
    Si476    Si       0.12814    0.34596    0.34078    1.000
    Si477    Si       0.20315    0.33552    0.34088    1.000
    N478     N        0.16092    0.26219    0.34026    1.000
    N479     N        0.04855    0.42179    0.30634    1.000
    N480     N        0.99741    0.48875    0.32389    1.000
    Si481    Si       0.06597    0.40034    0.33895    1.000
    N482     N        0.17126    0.40198    0.29794    1.000
    Si483    Si       0.12785    0.40227    0.29609    1.000
    N484     N        0.11494    0.44318    0.30234    1.000
    Si485    Si       0.22032    0.47693    0.30041    1.000
    N486     N        0.17687    0.47802    0.29868    1.000
    Si487    Si       0.20691    0.40599    0.32190    1.000
    Si488    Si       0.13926    0.47311    0.32083    1.000
    N489     N        0.23295    0.43626    0.30421    1.000
    N490     N        0.22786    0.49333    0.33985    1.000
    Si491    Si       0.08786    0.29897    0.39734    1.000
    N492     N        0.04528    0.30479    0.39528    1.000
    N493     N        0.04005    0.37314    0.36264    1.000
    N494     N        0.10328    0.26284    0.37709    1.000
    Si495    Si       0.01610    0.27179    0.39875    1.000
    N496     N        0.11135    0.33078    0.37690    1.000
    Si497    Si       0.03832    0.34893    0.39803    1.000
    Si498    Si       0.99641    0.37934    0.35194    1.000
    Si499    Si       0.11386    0.36761    0.40174    1.000
    N500     N        0.21664    0.31684    0.37908    1.000
    N501     N        0.16719    0.35922    0.35507    1.000
    Si502    Si       0.23216    0.34824    0.40380    1.000
    Si503    Si       0.20637    0.28133    0.40440    1.000
    Si504    Si       0.14441    0.25727    0.37886    1.000
    Si505    Si       0.00474    0.50732    0.36252    1.000
    Si506    Si       0.05484    0.46499    0.39280    1.000
    N507     N        0.07280    0.43490    0.36620    1.000
    N508     N        0.04822    0.50283    0.37151    1.000
    Si509    Si       0.11237    0.44243    0.38438    1.000
    N510     N        0.13316    0.40452    0.38746    1.000
    N511     N        0.13619    0.47219    0.36343    1.000
    N512     N        0.19798    0.42550    0.36074    1.000
    Si513    Si       0.16214    0.50050    0.38517    1.000
    Si514    Si       0.22221    0.46123    0.36788    1.000
    Si515    Si       0.17476    0.39465    0.37822    1.000
    N516     N        0.20116    0.48637    0.39840    1.000
    N517     N        0.10134    0.29247    0.43728    1.000
    N518     N        0.01058    0.35645    0.43281    1.000
    N519     N        0.07512    0.37011    0.41833    1.000
    N520     N        0.00047    0.26116    0.43725    1.000
    Si521    Si       0.14178    0.30720    0.43632    1.000
    N522     N        0.14217    0.35009    0.43171    1.000
    N523     N        0.21495    0.27250    0.44611    1.000
    N524     N        0.20709    0.38536    0.40786    1.000
    N525     N        0.16254    0.28464    0.40545    1.000
    Si526    Si       0.01799    0.45012    0.44878    1.000
    N527     N        0.09229    0.46230    0.41785    1.000
    Si528    Si       0.07740    0.39413    0.45355    1.000
    N529     N        0.01228    0.46381    0.40715    1.000
    N530     N        0.04150    0.41583    0.45862    1.000
    N531     N        0.15820    0.46893    0.45726    1.000
    Si532    Si       0.22180    0.38831    0.45554    1.000
    Si533    Si       0.11761    0.45295    0.45151    1.000
    N534     N        0.09346    0.30065    0.50422    1.000
    N535     N        0.06298    0.36340    0.48429    1.000
    Si536    Si       0.09038    0.26978    0.47347    1.000
    Si537    Si       0.02459    0.27654    0.50972    1.000
    Si538    Si       0.06983    0.33606    0.51533    1.000
    N539     N        0.99660    0.36723    0.50165    1.000
    Si540    Si       0.02251    0.37665    0.47033    1.000
    Si541    Si       0.19741    0.28140    0.48481    1.000
    N542     N        0.13918    0.35636    0.49922    1.000
    Si543    Si       0.13475    0.31181    0.50912    1.000
    N544     N        0.22148    0.30992    0.50796    1.000
    N545     N        0.15770    0.29749    0.47626    1.000
    N546     N        0.23745    0.37924    0.49622    1.000
    Si547    Si       0.14742    0.37980    0.46369    1.000
    N548     N        0.09822    0.47404    0.48605    1.000
    Si549    Si       0.05701    0.49026    0.49615    1.000
    N550     N        0.02831    0.48977    0.46547    1.000
    Si551    Si       0.18380    0.44149    0.48187    1.000
    N552     N        0.22380    0.46195    0.48538    1.000
    N553     N        0.11618    0.40964    0.45776    1.000
    N554     N        0.18144    0.40157    0.46768    1.000
    N555     N        0.09469    0.35184    0.54890    1.000
    Si556    Si       0.03505    0.29134    0.56856    1.000
    N557     N        0.03372    0.31485    0.53106    1.000
    N558     N        0.14060    0.29565    0.55048    1.000
    Si559    Si       0.17649    0.26762    0.55284    1.000
    N560     N        0.20619    0.28954    0.57646    1.000
    Si561    Si       0.13038    0.37359    0.53723    1.000
    N562     N        0.16511    0.37507    0.56317    1.000
    Si563    Si       0.23383    0.30633    0.54890    1.000
    Si564    Si       0.00050    0.38694    0.54118    1.000
    N565     N        0.03830    0.39784    0.55968    1.000
    Si566    Si       0.08057    0.39016    0.56342    1.000
    Si567    Si       0.02807    0.44166    0.55459    1.000
    N568     N        0.05546    0.46185    0.52799    1.000
    N569     N        0.10892    0.41210    0.53601    1.000
    Si570    Si       0.09814    0.45391    0.52632    1.000
    N571     N        0.99182    0.42738    0.53248    1.000
    N572     N        0.12424    0.48581    0.54304    1.000
    N573     N        0.22117    0.41393    0.56703    1.000
    N574     N        0.19657    0.50165    0.55270    1.000
    Si575    Si       0.15727    0.48760    0.56993    1.000
    Si576    Si       0.17847    0.41770    0.55928    1.000
    N577     N        0.17964    0.44510    0.52436    1.000
    Si578    Si       0.21533    0.47181    0.52778    1.000
    Si579    Si       0.05710    0.32747    0.62663    1.000
    N580     N        0.00517    0.29486    0.60075    1.000
    N581     N        0.02248    0.35576    0.62631    1.000
    Si582    Si       0.01555    0.26665    0.63369    1.000
    N583     N        0.06945    0.30402    0.59059    1.000
    N584     N        0.08178    0.36124    0.64120    1.000
    N585     N        0.12396    0.27384    0.61077    1.000
    Si586    Si       0.20821    0.29469    0.62161    1.000
    N587     N        0.21302    0.33917    0.61869    1.000
    N588     N        0.13679    0.33418    0.60978    1.000
    Si589    Si       0.17374    0.35778    0.60363    1.000
    Si590    Si       0.13886    0.30140    0.63987    1.000
    Si591    Si       0.11315    0.30651    0.58327    1.000
    Si592    Si       0.99213    0.50391    0.58980    1.000
    Si593    Si       0.05437    0.39005    0.62578    1.000
    Si594    Si       0.04754    0.46731    0.62157    1.000
    N595     N        0.08910    0.41158    0.60188    1.000
    N596     N        0.08782    0.47891    0.61048    1.000
    N597     N        0.03197    0.42713    0.63558    1.000
    N598     N        0.02189    0.47091    0.58593    1.000
    Si599    Si       0.17690    0.43675    0.62157    1.000
    N600     N        0.17655    0.39459    0.62872    1.000
    Si601    Si       0.11634    0.44416    0.61055    1.000
    N602     N        0.21401    0.45793    0.61792    1.000
    N603     N        0.15343    0.44451    0.58413    1.000
    Si604    Si       0.09916    0.35250    0.67991    1.000
    N605     N        0.04629    0.29598    0.65299    1.000
    Si606    Si       0.99949    0.34967    0.66298    1.000
    N607     N        0.00324    0.32070    0.69395    1.000
    Si608    Si       0.04572    0.30936    0.69374    1.000
    N609     N        0.11708    0.31202    0.67675    1.000
    N610     N        0.17702    0.28533    0.64961    1.000
    Si611    Si       0.18106    0.27127    0.69237    1.000
    N612     N        0.20451    0.36838    0.68578    1.000
    Si613    Si       0.23000    0.36043    0.65449    1.000
    N614     N        0.13105    0.37897    0.69030    1.000
    Si615    Si       0.99588    0.49378    0.66838    1.000
    N616     N        0.03770    0.49403    0.65466    1.000
    Si617    Si       0.15860    0.46096    0.68268    1.000
    N618     N        0.19839    0.47858    0.68635    1.000
    Si619    Si       0.22726    0.47479    0.65408    1.000
    N620     N        0.13430    0.49232    0.69811    1.000
    N621     N        0.14046    0.44910    0.64603    1.000
    Si622    Si       0.16784    0.39019    0.67217    1.000
    Si623    Si       0.04343    0.36714    0.74099    1.000
    N624     N        0.07145    0.28099    0.71678    1.000
    N625     N        0.99963    0.36766    0.74964    1.000
    N626     N        0.06245    0.34941    0.70554    1.000
    Si627    Si       0.11357    0.29225    0.71308    1.000
    N628     N        0.12882    0.31760    0.74497    1.000
    N629     N        0.19509    0.30339    0.71667    1.000
    Si630    Si       0.17036    0.32700    0.74610    1.000
    N631     N        0.17624    0.37002    0.74160    1.000
    Si632    Si       0.21618    0.37583    0.72652    1.000
    N633     N        0.03425    0.47487    0.75324    1.000
    N634     N        0.05137    0.40870    0.73925    1.000
    Si635    Si       0.01722    0.43366    0.75179    1.000
    N636     N        0.99394    0.50713    0.70934    1.000
    Si637    Si       0.09014    0.41920    0.75588    1.000
    Si638    Si       0.20746    0.45072    0.72505    1.000
    Si639    Si       0.13530    0.47786    0.73936    1.000
    N640     N        0.17348    0.42289    0.70170    1.000
    N641     N        0.12034    0.43820    0.73281    1.000
    N642     N        0.23138    0.41421    0.73524    1.000
    Si643    Si       0.14500    0.39891    0.72803    1.000
    N644     N        0.17776    0.46961    0.75174    1.000
    Si645    Si       0.04562    0.31376    0.80186    1.000
    N646     N        0.06862    0.27816    0.79864    1.000
    Si647    Si       0.10484    0.34213    0.77176    1.000
    N648     N        0.06055    0.34061    0.77072    1.000
    N649     N        0.00226    0.31564    0.80147    1.000
    N650     N        0.11029    0.32748    0.81286    1.000
    N651     N        0.11445    0.38288    0.76033    1.000
    N652     N        0.14073    0.26236    0.79818    1.000
    N653     N        0.18464    0.32034    0.78717    1.000
    Si654    Si       0.18094    0.27934    0.79755    1.000
    Si655    Si       0.19715    0.35224    0.81535    1.000
    N656     N        0.22750    0.37989    0.80038    1.000
    N657     N        0.08527    0.44420    0.79373    1.000
    Si658    Si       0.04638    0.46251    0.79580    1.000
    N659     N        0.01556    0.43022    0.79431    1.000
    N660     N        0.03541    0.49969    0.81372    1.000
    N661     N        0.11708    0.51045    0.75983    1.000
    N662     N        0.14499    0.48607    0.81340    1.000
    N663     N        0.21408    0.50369    0.79756    1.000
    Si664    Si       0.18334    0.47378    0.79674    1.000
    Si665    Si       0.23517    0.42011    0.81687    1.000
    N666     N        0.04416    0.33009    0.84201    1.000
    Si667    Si       0.99939    0.33153    0.84166    1.000
    N668     N        0.10438    0.26969    0.85484    1.000
    N669     N        0.09767    0.36493    0.86841    1.000
    N670     N        0.98919    0.36988    0.82593    1.000
    Si671    Si       0.10898    0.28466    0.81550    1.000
    Si672    Si       0.19318    0.30922    0.87173    1.000
    Si673    Si       0.13055    0.34916    0.84383    1.000
    N674     N        0.21802    0.34302    0.85317    1.000
    N675     N        0.19584    0.27943    0.83857    1.000
    N676     N        0.16111    0.37465    0.82694    1.000
    N677     N        0.15010    0.32106    0.86928    1.000
    Si678    Si       0.99762    0.41359    0.82969    1.000
    Si679    Si       0.11163    0.46049    0.82594    1.000
    N680     N        0.02246    0.42859    0.86069    1.000
    N681     N        0.08259    0.47955    0.85224    1.000
    N682     N        0.12762    0.42893    0.85084    1.000
    N683     N        0.19479    0.43572    0.81660    1.000
    Si684    Si       0.16649    0.41496    0.84230    1.000
    N685     N        0.07784    0.30837    0.90220    1.000
    N686     N        0.02837    0.36556    0.89671    1.000
    Si687    Si       0.05212    0.27775    0.92343    1.000
    Si688    Si       0.99754    0.34001    0.91404    1.000
    N689     N        0.01852    0.30521    0.93046    1.000
    Si690    Si       0.06107    0.34164    0.87943    1.000
    Si691    Si       0.11716    0.29459    0.88653    1.000
    N692     N        0.22500    0.36698    0.91933    1.000
    N693     N        0.13738    0.27240    0.91954    1.000
    N694     N        0.20453    0.29964    0.91245    1.000
    Si695    Si       0.22147    0.38060    0.87624    1.000
    N696     N        0.07048    0.42374    0.90227    1.000
    N697     N        0.03501    0.48097    0.90803    1.000
    Si698    Si       0.02700    0.40797    0.90043    1.000
    N699     N        0.00101    0.42638    0.92770    1.000
    Si700    Si       0.10578    0.40597    0.88125    1.000
    Si701    Si       0.00469    0.47108    0.93522    1.000
    Si702    Si       0.05333    0.45789    0.87521    1.000
    N703     N        0.18429    0.40345    0.88043    1.000
    Si704    Si       0.17760    0.50788    0.89857    1.000
    N705     N        0.16002    0.46973    0.89888    1.000
    N706     N        0.12878    0.41309    0.91736    1.000
    Si707    Si       0.16826    0.43010    0.91280    1.000
    Si708    Si       0.02195    0.30015    0.97352    1.000
    N709     N        0.05620    0.27296    0.96911    1.000
    Si710    Si       0.07117    0.35551    0.98563    1.000
    N711     N        0.10246    0.32930    0.97114    1.000
    N712     N        0.03259    0.33929    0.98752    1.000
    N713     N        0.17353    0.31628    0.96348    1.000
    Si714    Si       0.21188    0.33536    0.94870    1.000
    N715     N        0.21240    0.36739    0.98001    1.000
    Si716    Si       0.14177    0.33696    0.98514    1.000
    Si717    Si       0.22712    0.26336    0.96648    1.000
    Si718    Si       0.17314    0.28073    0.93876    1.000
    N719     N        0.08161    0.39457    0.96997    1.000
    N720     N        0.08599    0.46457    0.95548    1.000
    N721     N        0.02149    0.49902    0.96537    1.000
    Si722    Si       0.05987    0.49677    0.94095    1.000
    Si723    Si       0.10958    0.47380    0.99078    1.000
    Si724    Si       0.09324    0.42481    0.94035    1.000
    Si725    Si       0.18711    0.44914    0.98310    1.000
    N726     N        0.19320    0.42673    0.94728    1.000
    N727     N        0.22222    0.47422    0.98691    1.000
    Si728    Si       0.23341    0.49848    0.94860    1.000
    N729     N        0.15209    0.47608    0.98345    1.000
    Si730    Si       0.22464    0.39735    0.95085    1.000
    N731     N        0.05950    0.61404    0.03543    1.000
    Si732    Si       0.04398    0.57647    0.01904    1.000
    Si733    Si       0.10179    0.60302    0.04643    1.000
    N734     N        0.04460    0.54188    0.04494    1.000
    Si735    Si       0.07708    0.51448    0.04911    1.000
    N736     N        0.00868    0.56914    0.99515    1.000
    N737     N        0.12194    0.57091    0.02490    1.000
    Si738    Si       0.16491    0.56707    0.02579    1.000
    N739     N        0.18168    0.52986    0.01402    1.000
    N740     N        0.18315    0.59765    0.99823    1.000
    Si741    Si       0.05243    0.75264    0.04320    1.000
    N742     N        0.01186    0.67061    0.01559    1.000
    N743     N        0.01261    0.73490    0.04280    1.000
    Si744    Si       0.04886    0.65469    0.03225    1.000
    N745     N        0.08013    0.67303    0.01033    1.000
    N746     N        0.07037    0.74613    0.00475    1.000
    Si747    Si       0.99790    0.69411    0.05114    1.000
    N748     N        0.21005    0.64828    0.03762    1.000
    N749     N        0.12957    0.64025    0.04286    1.000
    Si750    Si       0.12172    0.66805    0.01187    1.000
    N751     N        0.13709    0.70938    0.02487    1.000
    Si752    Si       0.23157    0.68551    0.04478    1.000
    N753     N        0.02547    0.58451    0.09448    1.000
    Si754    Si       0.01777    0.54488    0.07846    1.000
    N755     N        0.09439    0.61430    0.08850    1.000
    Si756    Si       0.05771    0.60810    0.11198    1.000
    N757     N        0.01353    0.50774    0.10216    1.000
    N758     N        0.10630    0.52353    0.08004    1.000
    N759     N        0.22828    0.60063    0.07137    1.000
    Si760    Si       0.18807    0.62016    0.06378    1.000
    N761     N        0.17031    0.57777    0.06726    1.000
    N762     N        0.17339    0.51517    0.10202    1.000
    Si763    Si       0.16591    0.55807    0.10726    1.000
    N764     N        0.04107    0.67628    0.06915    1.000
    N765     N        0.08118    0.73985    0.07202    1.000
    Si766    Si       0.02566    0.68123    0.11014    1.000
    N767     N        0.98728    0.68952    0.09384    1.000
    N768     N        0.21254    0.71337    0.07242    1.000
    N769     N        0.11873    0.68788    0.09368    1.000
    Si770    Si       0.19463    0.74999    0.06090    1.000
    Si771    Si       0.12558    0.64647    0.08477    1.000
    N772     N        0.15372    0.75104    0.07338    1.000
    Si773    Si       0.23091    0.71351    0.11069    1.000
    N774     N        0.16582    0.63811    0.09690    1.000
    Si775    Si       0.12338    0.72154    0.06428    1.000
    N776     N        0.06302    0.58920    0.15188    1.000
    N777     N        0.05487    0.52043    0.15769    1.000
    N778     N        0.99439    0.55274    0.15231    1.000
    Si779    Si       0.09793    0.51470    0.16205    1.000
    Si780    Si       0.10639    0.58482    0.16287    1.000
    Si781    Si       0.98955    0.51156    0.13961    1.000
    N782     N        0.13354    0.56890    0.13189    1.000
    N783     N        0.20302    0.57560    0.12795    1.000
    N784     N        0.09120    0.68451    0.16956    1.000
    N785     N        0.03899    0.64468    0.12705    1.000
    N786     N        0.04291    0.71538    0.13120    1.000
    N787     N        0.10563    0.74064    0.13790    1.000
    Si788    Si       0.06875    0.74602    0.11384    1.000
    Si789    Si       0.11938    0.69767    0.13617    1.000
    Si790    Si       0.18805    0.71544    0.16883    1.000
    Si791    Si       0.23375    0.66074    0.16440    1.000
    Si792    Si       0.18342    0.65738    0.13093    1.000
    N793     N        0.19829    0.63539    0.16568    1.000
    N794     N        0.20839    0.73904    0.13886    1.000
    N795     N        0.15944    0.68987    0.14832    1.000
    N796     N        0.22204    0.67403    0.12513    1.000
    N797     N        0.02477    0.54901    0.21269    1.000
    N798     N        0.00289    0.60949    0.18304    1.000
    Si799    Si       0.99378    0.51702    0.21124    1.000
    Si800    Si       0.99526    0.61370    0.22631    1.000
    N801     N        0.10701    0.54733    0.18851    1.000
    N802     N        0.06316    0.63063    0.20558    1.000
    Si803    Si       0.03397    0.55893    0.16854    1.000
    N804     N        0.18828    0.58100    0.20160    1.000
    Si805    Si       0.16836    0.61904    0.19177    1.000
    N806     N        0.12719    0.62087    0.17943    1.000
    N807     N        0.22341    0.52645    0.17812    1.000
    Si808    Si       0.21762    0.57004    0.17062    1.000
    N809     N        0.10377    0.74861    0.21548    1.000
    Si810    Si       0.99795    0.75153    0.19739    1.000
    Si811    Si       0.10259    0.65194    0.19511    1.000
    N812     N        0.03929    0.73952    0.19919    1.000
    N813     N        0.02246    0.67536    0.18179    1.000
    Si814    Si       0.05352    0.70569    0.17182    1.000
    Si815    Si       0.03643    0.63475    0.17109    1.000
    Si816    Si       0.12048    0.75570    0.17564    1.000
    N817     N        0.15887    0.73905    0.19087    1.000
    N818     N        0.22147    0.69422    0.18926    1.000
    N819     N        0.17387    0.64317    0.22864    1.000
    N820     N        0.07713    0.55100    0.25691    1.000
    Si821    Si       0.03632    0.56665    0.25189    1.000
    N822     N        0.02819    0.61210    0.25600    1.000
    N823     N        0.09019    0.61228    0.28173    1.000
    N824     N        0.01722    0.54562    0.28597    1.000
    Si825    Si       0.11139    0.54497    0.23114    1.000
    Si826    Si       0.17806    0.56749    0.24014    1.000
    N827     N        0.20365    0.59167    0.26731    1.000
    N828     N        0.13733    0.57554    0.24829    1.000
    N829     N        0.18590    0.52440    0.24746    1.000
    Si830    Si       0.13329    0.60418    0.28264    1.000
    Si831    Si       0.06711    0.63483    0.25051    1.000
    N832     N        0.06759    0.73826    0.27098    1.000
    N833     N        0.04742    0.66577    0.27969    1.000
    N834     N        0.10490    0.65945    0.23915    1.000
    Si835    Si       0.20690    0.63486    0.25342    1.000
    Si836    Si       0.14551    0.66466    0.25245    1.000
    N837     N        0.15005    0.64363    0.28865    1.000
    Si838    Si       0.14339    0.74111    0.23220    1.000
    N839     N        0.15015    0.70750    0.25836    1.000
    N840     N        0.07356    0.55164    0.32480    1.000
    Si841    Si       0.07085    0.59406    0.31756    1.000
    N842     N        0.02880    0.60557    0.32165    1.000
    Si843    Si       0.00214    0.57021    0.31947    1.000
    Si844    Si       0.08191    0.52589    0.29173    1.000
    Si845    Si       0.13618    0.54276    0.33372    1.000
    N846     N        0.14780    0.57830    0.31282    1.000
    Si847    Si       0.19300    0.58407    0.31003    1.000
    N848     N        0.22568    0.55948    0.32630    1.000
    N849     N        0.19630    0.61952    0.33696    1.000
    N850     N        0.12497    0.51377    0.30472    1.000
    N851     N        0.04305    0.72226    0.32590    1.000
    N852     N        0.00544    0.66195    0.33206    1.000
    N853     N        0.10600    0.69553    0.31724    1.000
    Si854    Si       0.06678    0.70108    0.29584    1.000
    Si855    Si       0.01273    0.63857    0.29415    1.000
    N856     N        0.16725    0.69141    0.33294    1.000
    Si857    Si       0.18317    0.65447    0.31507    1.000
    Si858    Si       0.23542    0.75453    0.31731    1.000
    Si859    Si       0.14380    0.71374    0.30052    1.000
    N860     N        0.21404    0.66224    0.28391    1.000
    Si861    Si       0.06857    0.54110    0.36626    1.000
    N862     N        0.01585    0.61914    0.38960    1.000
    Si863    Si       0.01416    0.57617    0.39281    1.000
    N864     N        0.00697    0.55004    0.35775    1.000
    N865     N        0.05507    0.56585    0.40120    1.000
    Si866    Si       0.10616    0.63029    0.38675    1.000
    N867     N        0.08134    0.61568    0.35414    1.000
    N868     N        0.11120    0.54284    0.37235    1.000
    N869     N        0.13855    0.60298    0.39782    1.000
    N870     N        0.23269    0.54392    0.39508    1.000
    N871     N        0.17267    0.52899    0.35538    1.000
    Si872    Si       0.21513    0.53201    0.35652    1.000
    Si873    Si       0.13201    0.56212    0.40701    1.000
    Si874    Si       0.03847    0.63583    0.35465    1.000
    N875     N        0.99986    0.72203    0.38259    1.000
    N876     N        0.05125    0.67348    0.37309    1.000
    Si877    Si       0.02132    0.69875    0.35343    1.000
    N878     N        0.22916    0.67324    0.35185    1.000
    N879     N        0.12129    0.67083    0.38851    1.000
    N880     N        0.13303    0.73611    0.36475    1.000
    Si881    Si       0.12562    0.69581    0.35500    1.000
    Si882    Si       0.19799    0.70527    0.36271    1.000
    Si883    Si       0.21992    0.63385    0.37079    1.000
    Si884    Si       0.12816    0.75539    0.40522    1.000
    N885     N        0.20425    0.74477    0.34641    1.000
    Si886    Si       0.07150    0.58878    0.43348    1.000
    N887     N        0.10860    0.56890    0.44236    1.000
    N888     N        0.07786    0.62948    0.42062    1.000
    Si889    Si       0.00108    0.58452    0.45993    1.000
    N890     N        0.99452    0.55482    0.42614    1.000
    Si891    Si       0.99940    0.52117    0.45737    1.000
    N892     N        0.04390    0.58881    0.46710    1.000
    Si893    Si       0.16231    0.62532    0.42941    1.000
    N894     N        0.15316    0.52601    0.42010    1.000
    N895     N        0.20364    0.53064    0.46216    1.000
    Si896    Si       0.22103    0.51426    0.42530    1.000
    N897     N        0.17202    0.59000    0.46037    1.000
    Si898    Si       0.16613    0.51081    0.45773    1.000
    Si899    Si       0.00819    0.71858    0.42497    1.000
    N900     N        0.07733    0.69199    0.43981    1.000
    N901     N        0.01137    0.67523    0.42577    1.000
    N902     N        0.03200    0.74797    0.44596    1.000
    Si903    Si       0.05323    0.66553    0.41686    1.000
    Si904    Si       0.20684    0.75561    0.41500    1.000
    N905     N        0.14335    0.65804    0.44983    1.000
    Si906    Si       0.21342    0.67546    0.43057    1.000
    Si907    Si       0.12070    0.68705    0.42873    1.000
    N908     N        0.19733    0.64101    0.40859    1.000
    N909     N        0.13476    0.72735    0.43768    1.000
    N910     N        0.20357    0.71077    0.40720    1.000
    Si911    Si       0.06250    0.56901    0.50276    1.000
    N912     N        0.10245    0.58955    0.50518    1.000
    N913     N        0.07402    0.52792    0.50666    1.000
    Si914    Si       0.11423    0.51080    0.50827    1.000
    Si915    Si       0.20486    0.56920    0.48171    1.000
    N916     N        0.14265    0.53298    0.48955    1.000
    Si917    Si       0.13408    0.57342    0.47825    1.000
    N918     N        0.02921    0.70055    0.49256    1.000
    N919     N        0.09103    0.73456    0.49146    1.000
    Si920    Si       0.98844    0.71301    0.49041    1.000
    Si921    Si       0.05929    0.71990    0.46733    1.000
    Si922    Si       0.13317    0.73384    0.48118    1.000
    Si923    Si       0.22870    0.75769    0.48982    1.000
    N924     N        0.15207    0.70255    0.50363    1.000
    N925     N        0.20781    0.67414    0.47435    1.000
    N926     N        0.15920    0.63222    0.51368    1.000
    Si927    Si       0.23111    0.69646    0.50719    1.000
    N928     N        0.20898    0.73268    0.52069    1.000
    Si929    Si       0.16545    0.66351    0.48716    1.000
    Si930    Si       0.02000    0.61095    0.55141    1.000
    N931     N        0.03599    0.57046    0.53703    1.000
    Si932    Si       0.05126    0.56078    0.57679    1.000
    Si933    Si       0.99249    0.55601    0.53146    1.000
    Si934    Si       0.11637    0.62453    0.52682    1.000
    N935     N        0.13326    0.60821    0.56373    1.000
    Si936    Si       0.21288    0.54365    0.55437    1.000
    Si937    Si       0.17357    0.60838    0.54689    1.000
    N938     N        0.20272    0.62073    0.57937    1.000
    N939     N        0.19403    0.57332    0.52791    1.000
    N940     N        0.06131    0.71777    0.55133    1.000
    N941     N        0.02098    0.65390    0.54616    1.000
    Si942    Si       0.05173    0.68068    0.52852    1.000
    N943     N        0.08426    0.65291    0.52270    1.000
    Si944    Si       0.07128    0.75074    0.52695    1.000
    N945     N        0.15360    0.74860    0.56324    1.000
    Si946    Si       0.17095    0.71716    0.53941    1.000
    N947     N        0.18210    0.68280    0.56202    1.000
    N948     N        0.09301    0.61556    0.62834    1.000
    Si949    Si       0.10632    0.51773    0.61264    1.000
    Si950    Si       0.00164    0.55027    0.63306    1.000
    N951     N        0.02061    0.53822    0.59560    1.000
    N952     N        0.09133    0.55327    0.59208    1.000
    Si953    Si       0.11332    0.59181    0.60005    1.000
    N954     N        0.04199    0.60081    0.58891    1.000
    Si955    Si       0.05648    0.63015    0.61812    1.000
    Si956    Si       0.22437    0.59394    0.60446    1.000
    Si957    Si       0.17198    0.54414    0.61985    1.000
    N958     N        0.15004    0.58281    0.62082    1.000
    N959     N        0.20895    0.55285    0.59835    1.000
    N960     N        0.14817    0.51293    0.60280    1.000
    Si961    Si       0.16583    0.61685    0.64117    1.000
    N962     N        0.20815    0.60850    0.64227    1.000
    Si963    Si       0.99427    0.74150    0.59700    1.000
    Si964    Si       0.06377    0.70707    0.59428    1.000
    N965     N        0.04769    0.66882    0.60230    1.000
    N966     N        0.03185    0.72805    0.61628    1.000
    N967     N        0.10579    0.70736    0.60345    1.000
    Si968    Si       0.00797    0.67063    0.58497    1.000
    N969     N        0.22760    0.74825    0.63470    1.000
    N970     N        0.15573    0.72625    0.63422    1.000
    N971     N        0.16176    0.65600    0.62271    1.000
    Si972    Si       0.19389    0.65953    0.59399    1.000
    Si973    Si       0.13083    0.74359    0.60080    1.000
    N974     N        0.23365    0.67702    0.60726    1.000
    Si975    Si       0.13450    0.68834    0.63234    1.000
    N976     N        0.03256    0.55977    0.66203    1.000
    Si977    Si       0.03573    0.59701    0.68476    1.000
    Si978    Si       0.06188    0.52744    0.67024    1.000
    N979     N        0.10174    0.53180    0.65380    1.000
    N980     N        0.02911    0.62482    0.65308    1.000
    Si981    Si       0.10010    0.62956    0.66866    1.000
    N982     N        0.07487    0.60988    0.69911    1.000
    N983     N        0.14205    0.61898    0.67767    1.000
    N984     N        0.17432    0.53649    0.66345    1.000
    Si985    Si       0.13467    0.53100    0.68149    1.000
    Si986    Si       0.20928    0.52127    0.68624    1.000
    Si987    Si       0.23635    0.62567    0.67024    1.000
    N988     N        0.99577    0.72486    0.67667    1.000
    N989     N        0.05494    0.71180    0.68724    1.000
    Si990    Si       0.03440    0.73517    0.65754    1.000
    N991     N        0.10618    0.67225    0.66237    1.000
    Si992    Si       0.09255    0.69798    0.69539    1.000
    N993     N        0.19694    0.71977    0.68655    1.000
    Si994    Si       0.23567    0.69953    0.69638    1.000
    Si995    Si       0.18845    0.74584    0.65427    1.000
    N996     N        0.22202    0.65929    0.69117    1.000
    Si997    Si       0.09651    0.54204    0.73894    1.000
    Si998    Si       0.07965    0.61128    0.74231    1.000
    N999     N        0.06507    0.52439    0.71348    1.000
    N1000    N        0.00310    0.60059    0.71526    1.000
    Si1001   Si       0.02890    0.51238    0.73404    1.000
    N1002    N        0.12678    0.55912    0.71286    1.000
    N1003    N        0.12399    0.62019    0.75033    1.000
    N1004    N        0.18369    0.60862    0.72909    1.000
    N1005    N        0.21332    0.53798    0.72700    1.000
    Si1006   Si       0.21851    0.58282    0.73058    1.000
    Si1007   Si       0.14306    0.59859    0.71690    1.000
    Si1008   Si       0.23268    0.51342    0.75888    1.000
    Si1009   Si       0.01712    0.71075    0.71120    1.000
    N1010    N        0.01701    0.74154    0.74163    1.000
    Si1011   Si       0.04880    0.67289    0.75336    1.000
    N1012    N        0.08794    0.67497    0.73258    1.000
    N1013    N        0.01324    0.67080    0.72825    1.000
    N1014    N        0.19356    0.72374    0.75308    1.000
    N1015    N        0.12293    0.72910    0.70217    1.000
    Si1016   Si       0.19268    0.65079    0.72363    1.000
    Si1017   Si       0.12449    0.66564    0.75191    1.000
    Si1018   Si       0.16535    0.72038    0.71698    1.000
    N1019    N        0.15720    0.67561    0.72612    1.000
    N1020    N        0.21707    0.66349    0.75788    1.000
    Si1021   Si       0.02082    0.62316    0.79942    1.000
    Si1022   Si       0.07816    0.57837    0.80662    1.000
    Si1023   Si       0.00114    0.51923    0.79827    1.000
    N1024    N        0.11058    0.60605    0.81263    1.000
    N1025    N        0.07812    0.57238    0.76212    1.000
    N1026    N        0.05336    0.63173    0.76818    1.000
    N1027    N        0.04070    0.59074    0.81979    1.000
    N1028    N        0.00902    0.54077    0.76034    1.000
    N1029    N        0.15496    0.55939    0.78446    1.000
    Si1030   Si       0.13085    0.52524    0.79884    1.000
    Si1031   Si       0.14393    0.60026    0.78498    1.000
    N1032    N        0.17710    0.62521    0.80184    1.000
    Si1033   Si       0.21700    0.63146    0.78566    1.000
    N1034    N        0.23415    0.59323    0.76970    1.000
    Si1035   Si       0.01123    0.73444    0.78485    1.000
    N1036    N        0.03991    0.69935    0.78643    1.000
    Si1037   Si       0.22803    0.70411    0.76643    1.000
    N1038    N        0.12075    0.67542    0.79357    1.000
    N1039    N        0.13865    0.74734    0.78968    1.000
    N1040    N        0.22713    0.71474    0.80821    1.000
    Si1041   Si       0.12115    0.71486    0.81362    1.000
    Si1042   Si       0.01573    0.57155    0.84924    1.000
    N1043    N        0.04419    0.54421    0.86718    1.000
    Si1044   Si       0.06519    0.51771    0.84103    1.000
    N1045    N        0.99660    0.59917    0.87608    1.000
    N1046    N        0.09546    0.53890    0.81929    1.000
    N1047    N        0.19537    0.59693    0.86179    1.000
    Si1048   Si       0.23322    0.51678    0.83540    1.000
    Si1049   Si       0.17917    0.63410    0.84425    1.000
    N1050    N        0.20614    0.51284    0.86797    1.000
    Si1051   Si       0.23667    0.58161    0.86736    1.000
    Si1052   Si       0.04932    0.75993    0.83597    1.000
    N1053    N        0.01088    0.65124    0.82952    1.000
    N1054    N        0.02571    0.72296    0.84544    1.000
    N1055    N        0.07540    0.66739    0.84189    1.000
    Si1056   Si       0.99876    0.64176    0.87013    1.000
    Si1057   Si       0.03970    0.68651    0.82761    1.000
    Si1058   Si       0.99923    0.74601    0.87363    1.000
    Si1059   Si       0.11254    0.64672    0.82695    1.000
    Si1060   Si       0.10960    0.74349    0.87387    1.000
    N1061    N        0.08717    0.74152    0.82368    1.000
    N1062    N        0.13970    0.64250    0.86062    1.000
    N1063    N        0.13423    0.71207    0.85438    1.000
    Si1064   Si       0.23259    0.68352    0.83906    1.000
    N1065    N        0.19436    0.67220    0.85771    1.000
    Si1066   Si       0.15585    0.68311    0.87523    1.000
    Si1067   Si       0.06170    0.56164    0.90258    1.000
    N1068    N        0.09811    0.58544    0.90148    1.000
    N1069    N        0.02816    0.57169    0.92632    1.000
    N1070    N        0.08162    0.53024    0.92485    1.000
    Si1071   Si       0.12390    0.62021    0.89609    1.000
    Si1072   Si       0.12103    0.55302    0.92116    1.000
    Si1073   Si       0.18286    0.57888    0.90121    1.000
    N1074    N        0.15732    0.60790    0.92355    1.000
    N1075    N        0.15475    0.54590    0.89549    1.000
    N1076    N        0.22709    0.57083    0.90880    1.000
    N1077    N        0.03004    0.66156    0.89513    1.000
    Si1078   Si       0.05080    0.73154    0.92420    1.000
    N1079    N        0.09759    0.65109    0.91059    1.000
    N1080    N        0.00899    0.73450    0.91330    1.000
    N1081    N        0.07918    0.71654    0.89420    1.000
    Si1082   Si       0.07140    0.67472    0.88713    1.000
    Si1083   Si       0.02250    0.66439    0.93585    1.000
    N1084    N        0.15720    0.68196    0.91843    1.000
    N1085    N        0.22251    0.70332    0.92280    1.000
    N1086    N        0.14386    0.75540    0.90237    1.000
    Si1087   Si       0.03288    0.58879    0.96477    1.000
    N1088    N        0.07037    0.57256    0.98341    1.000
    Si1089   Si       0.99512    0.52947    0.98366    1.000
    Si1090   Si       0.10403    0.54861    0.99171    1.000
    Si1091   Si       0.16582    0.51626    0.97378    1.000
    N1092    N        0.13492    0.54390    0.96116    1.000
    Si1093   Si       0.16322    0.62002    0.96501    1.000
    N1094    N        0.19341    0.51305    0.93903    1.000
    Si1095   Si       0.21487    0.62695    0.99777    1.000
    N1096    N        0.02455    0.62972    0.96342    1.000
    N1097    N        0.04527    0.69776    0.95260    1.000
    Si1098   Si       0.07343    0.70726    0.98522    1.000
    Si1099   Si       0.99284    0.65205    0.98290    1.000
    Si1100   Si       0.11901    0.67418    0.94011    1.000
    N1101    N        0.18209    0.72310    0.97385    1.000
    N1102    N        0.11132    0.70826    0.96441    1.000
    Si1103   Si       0.21728    0.74061    0.99092    1.000
    N1104    N        0.19718    0.64762    0.96287    1.000
    Si1105   Si       0.19006    0.68773    0.94500    1.000
    N1106    N        0.13032    0.64614    0.97465    1.000
    Si1107   Si       0.14153    0.73108    0.98574    1.000
    N1108    N        0.03635    0.86218    0.02473    1.000
    Si1109   Si       0.03855    0.81905    0.01557    1.000
    N1110    N        0.10807    0.85856    0.03348    1.000
    N1111    N        0.05131    0.79766    0.05098    1.000
    N1112    N        0.00166    0.79953    0.00017    1.000
    Si1113   Si       0.06915    0.87197    0.05376    1.000
    Si1114   Si       0.00278    0.88688    0.01319    1.000
    Si1115   Si       0.19939    0.81155    0.02481    1.000
    N1116    N        0.18618    0.87130    0.01934    1.000
    Si1117   Si       0.15258    0.85742    0.04338    1.000
    N1118    N        0.16411    0.81523    0.05029    1.000
    N1119    N        0.20270    0.76715    0.02232    1.000
    Si1120   Si       0.05112    0.93863    0.02874    1.000
    N1121    N        0.01129    0.92312    0.03563    1.000
    N1122    N        0.05285    0.98185    0.03697    1.000
    Si1123   Si       0.02982    0.00707    0.00781    1.000
    N1124    N        0.20769    0.93420    0.03193    1.000
    N1125    N        0.17724    0.98424    0.01344    1.000
    N1126    N        0.14051    0.94306    0.04449    1.000
    Si1127   Si       0.21966    0.89347    0.03429    1.000
    Si1128   Si       0.14261    0.96022    0.00314    1.000
    Si1129   Si       0.17996    0.95967    0.05613    1.000
    Si1130   Si       0.06714    0.81073    0.08971    1.000
    N1131    N        0.05943    0.85328    0.09157    1.000
    N1132    N        0.10922    0.80680    0.09881    1.000
    Si1133   Si       0.14841    0.79271    0.08350    1.000
    N1134    N        0.21703    0.78253    0.08542    1.000
    N1135    N        0.16002    0.87643    0.08127    1.000
    N1136    N        0.00410    0.96794    0.09769    1.000
    Si1137   Si       0.00015    0.93124    0.07705    1.000
    N1138    N        0.09961    0.97459    0.08960    1.000
    Si1139   Si       0.08034    0.00358    0.06211    1.000
    N1140    N        0.00901    0.89776    0.10383    1.000
    Si1141   Si       0.11022    0.93399    0.07410    1.000
    Si1142   Si       0.02640    0.00376    0.11070    1.000
    N1143    N        0.07704    0.91534    0.05579    1.000
    Si1144   Si       0.23470    0.92748    0.09367    1.000
    N1145    N        0.17803    0.99771    0.07827    1.000
    Si1146   Si       0.16563    0.90783    0.11198    1.000
    N1147    N        0.19216    0.94081    0.09871    1.000
    N1148    N        0.01473    0.84284    0.14749    1.000
    Si1149   Si       0.01232    0.80014    0.13585    1.000
    Si1150   Si       0.03778    0.87273    0.12478    1.000
    N1151    N        0.04777    0.78353    0.11766    1.000
    N1152    N        0.99050    0.77693    0.16352    1.000
    Si1153   Si       0.20272    0.78181    0.12704    1.000
    N1154    N        0.12210    0.85958    0.14667    1.000
    Si1155   Si       0.12810    0.81862    0.13564    1.000
    N1156    N        0.22703    0.80368    0.15427    1.000
    N1157    N        0.16618    0.80317    0.12232    1.000
    N1158    N        0.06039    0.89293    0.15474    1.000
    N1159    N        0.03731    0.99394    0.15262    1.000
    Si1160   Si       0.10135    0.90845    0.15355    1.000
    N1161    N        0.09480    0.95231    0.16135    1.000
    Si1162   Si       0.18758    0.98194    0.11832    1.000
    N1163    N        0.18311    0.89361    0.14922    1.000
    Si1164   Si       0.11859    0.96793    0.12823    1.000
    N1165    N        0.22319    0.98422    0.14549    1.000
    Si1166   Si       0.22115    0.90454    0.16663    1.000
    N1167    N        0.15194    0.99004    0.14182    1.000
    N1168    N        0.12516    0.92314    0.11632    1.000
    N1169    N        0.06220    0.87429    0.22219    1.000
    N1170    N        0.11142    0.83955    0.23151    1.000
    Si1171   Si       0.10822    0.88313    0.22747    1.000
    N1172    N        0.17227    0.83960    0.19563    1.000
    Si1173   Si       0.13813    0.81292    0.21283    1.000
    Si1174   Si       0.21594    0.82865    0.18872    1.000
    N1175    N        0.23350    0.81519    0.22747    1.000
    Si1176   Si       0.15343    0.87183    0.17352    1.000
    N1177    N        0.12214    0.79992    0.17539    1.000
    N1178    N        0.23694    0.86718    0.18320    1.000
    Si1179   Si       0.04254    0.90092    0.19270    1.000
    N1180    N        0.99955    0.89700    0.19144    1.000
    Si1181   Si       0.06202    0.97173    0.18179    1.000
    N1182    N        0.04136    0.94207    0.20797    1.000
    N1183    N        0.06510    0.99966    0.21656    1.000
    N1184    N        0.18618    0.99751    0.20477    1.000
    N1185    N        0.12425    0.89923    0.19230    1.000
    N1186    N        0.21881    0.93347    0.19772    1.000
    Si1187   Si       0.22046    0.97711    0.18756    1.000
    Si1188   Si       0.06961    0.83786    0.24446    1.000
    Si1189   Si       0.00462    0.79779    0.25433    1.000
    N1190    N        0.04745    0.79969    0.23924    1.000
    N1191    N        0.07498    0.84989    0.28759    1.000
    N1192    N        0.00925    0.77325    0.29068    1.000
    Si1193   Si       0.06506    0.75713    0.23103    1.000
    N1194    N        0.15318    0.78347    0.24115    1.000
    Si1195   Si       0.17437    0.78610    0.27918    1.000
    N1196    N        0.21524    0.77318    0.28319    1.000
    N1197    N        0.21420    0.87912    0.25247    1.000
    Si1198   Si       0.20458    0.85874    0.29086    1.000
    Si1199   Si       0.09356    0.99974    0.25215    1.000
    N1200    N        0.06721    0.97188    0.27362    1.000
    Si1201   Si       0.03785    0.97162    0.24104    1.000
    N1202    N        0.99524    0.96582    0.25020    1.000
    Si1203   Si       0.14178    0.94031    0.27381    1.000
    N1204    N        0.11833    0.90404    0.26463    1.000
    Si1205   Si       0.21567    0.92057    0.24067    1.000
    N1206    N        0.13144    0.98084    0.25471    1.000
    Si1207   Si       0.17369    0.98654    0.24381    1.000
    N1208    N        0.18161    0.94405    0.25661    1.000
    N1209    N        0.02030    0.85975    0.32552    1.000
    N1210    N        0.06906    0.78836    0.32464    1.000
    Si1211   Si       0.05826    0.83402    0.32499    1.000
    Si1212   Si       0.04728    0.75898    0.30429    1.000
    Si1213   Si       0.09847    0.88413    0.29728    1.000
    N1214    N        0.12519    0.86853    0.32926    1.000
    Si1215   Si       0.16150    0.84351    0.33207    1.000
    N1216    N        0.19358    0.87311    0.32966    1.000
    N1217    N        0.17314    0.82713    0.29157    1.000
    N1218    N        0.15283    0.75659    0.30505    1.000
    N1219    N        0.99211    0.00057    0.31238    1.000
    Si1220   Si       0.01363    0.96805    0.33684    1.000
    Si1221   Si       0.02859    0.90348    0.33388    1.000
    N1222    N        0.00117    0.93214    0.31517    1.000
    N1223    N        0.05673    0.97346    0.34023    1.000
    N1224    N        0.06590    0.90993    0.31385    1.000
    Si1225   Si       0.07727    0.95060    0.30889    1.000
    N1226    N        0.22653    0.93488    0.32326    1.000
    N1227    N        0.12322    0.94887    0.31263    1.000
    N1228    N        0.16622    0.99368    0.34304    1.000
    N1229    N        0.02320    0.80682    0.38506    1.000
    N1230    N        0.09519    0.78121    0.39515    1.000
    N1231    N        0.08101    0.83485    0.36369    1.000
    Si1232   Si       0.06327    0.81195    0.39904    1.000
    Si1233   Si       0.10997    0.86852    0.36892    1.000
    Si1234   Si       0.10255    0.79572    0.35370    1.000
    Si1235   Si       0.99783    0.88228    0.40271    1.000
    N1236    N        0.20606    0.82663    0.38385    1.000
    N1237    N        0.14352    0.85823    0.39335    1.000
    Si1238   Si       0.16485    0.81773    0.39486    1.000
    N1239    N        0.17025    0.77194    0.39972    1.000
    Si1240   Si       0.23858    0.85196    0.39834    1.000
    N1241    N        0.14696    0.80538    0.35241    1.000
    Si1242   Si       0.16370    0.76448    0.34896    1.000
    N1243    N        0.99698    0.98502    0.37527    1.000
    Si1244   Si       0.08105    0.99657    0.36908    1.000
    N1245    N        0.01930    0.91412    0.37711    1.000
    N1246    N        0.09072    0.90173    0.38266    1.000
    Si1247   Si       0.05541    0.90796    0.40211    1.000
    N1248    N        0.16942    0.92791    0.36426    1.000
    Si1249   Si       0.20544    0.90825    0.35098    1.000
    N1250    N        0.22885    0.89528    0.38573    1.000
    N1251    N        0.11577    0.97242    0.38240    1.000
    Si1252   Si       0.19372    0.00700    0.37751    1.000
    Si1253   Si       0.14328    0.95772    0.34950    1.000
    N1254    N        0.23841    0.00863    0.37565    1.000
    N1255    N        0.06321    0.81476    0.44365    1.000
    Si1256   Si       0.06115    0.85718    0.45693    1.000
    N1257    N        0.03645    0.87369    0.42216    1.000
    N1258    N        0.10044    0.87853    0.45361    1.000
    Si1259   Si       0.03437    0.78705    0.46709    1.000
    N1260    N        0.15144    0.81961    0.43901    1.000
    Si1261   Si       0.13957    0.86348    0.43960    1.000
    N1262    N        0.20403    0.76822    0.45648    1.000
    N1263    N        0.23336    0.85253    0.44090    1.000
    N1264    N        0.06276    0.93247    0.43492    1.000
    N1265    N        0.00969    0.96972    0.43612    1.000
    Si1266   Si       0.09714    0.92225    0.46022    1.000
    Si1267   Si       0.04105    0.95645    0.46345    1.000
    N1268    N        0.16913    0.88833    0.45764    1.000
    N1269    N        0.18083    0.98786    0.41548    1.000
    N1270    N        0.13050    0.94639    0.45038    1.000
    Si1271   Si       0.13716    0.97695    0.42008    1.000
    Si1272   Si       0.20920    0.97912    0.44788    1.000
    N1273    N        0.03989    0.86832    0.49370    1.000
    Si1274   Si       0.99974    0.84478    0.49641    1.000
    N1275    N        0.04104    0.77413    0.50801    1.000
    Si1276   Si       0.00057    0.77918    0.52381    1.000
    N1277    N        0.99947    0.81176    0.46852    1.000
    N1278    N        0.14675    0.77330    0.49785    1.000
    N1279    N        0.19059    0.83075    0.49218    1.000
    Si1280   Si       0.17272    0.79750    0.46967    1.000
    Si1281   Si       0.20300    0.86587    0.46917    1.000
    N1282    N        0.07533    0.93127    0.49621    1.000
    Si1283   Si       0.07386    0.99225    0.51523    1.000
    N1284    N        0.01230    0.93543    0.49191    1.000
    Si1285   Si       0.04819    0.90295    0.52105    1.000
    N1286    N        0.06530    0.99189    0.47068    1.000
    Si1287   Si       0.10591    0.93032    0.52815    1.000
    N1288    N        0.23307    0.88531    0.49302    1.000
    Si1289   Si       0.20910    0.96176    0.51960    1.000
    N1290    N        0.14459    0.91731    0.51415    1.000
    Si1291   Si       0.16228    0.92618    0.47610    1.000
    N1292    N        0.19490    0.95256    0.47974    1.000
    N1293    N        0.09875    0.77852    0.54895    1.000
    Si1294   Si       0.00794    0.81086    0.57496    1.000
    N1295    N        0.00024    0.76941    0.56689    1.000
    N1296    N        0.99962    0.82299    0.53343    1.000
    N1297    N        0.10852    0.83930    0.57824    1.000
    Si1298   Si       0.08982    0.87774    0.58369    1.000
    Si1299   Si       0.14318    0.78336    0.53941    1.000
    N1300    N        0.17065    0.81461    0.55239    1.000
    N1301    N        0.23271    0.84923    0.54825    1.000
    Si1302   Si       0.20785    0.82026    0.52999    1.000
    N1303    N        0.16808    0.87873    0.57886    1.000
    N1304    N        0.10417    0.97329    0.53995    1.000
    N1305    N        0.02056    0.91809    0.55397    1.000
    N1306    N        0.08488    0.89879    0.54738    1.000
    N1307    N        0.03430    0.98697    0.53516    1.000
    Si1308   Si       0.00580    0.95241    0.53096    1.000
    Si1309   Si       0.23555    0.89068    0.53683    1.000
    N1310    N        0.18321    0.98736    0.54245    1.000
    Si1311   Si       0.16824    0.91309    0.55115    1.000
    N1312    N        0.20793    0.92308    0.54095    1.000
    N1313    N        0.14985    0.94061    0.57996    1.000
    Si1314   Si       0.14303    0.97811    0.55929    1.000
    Si1315   Si       0.04455    0.83914    0.62489    1.000
    N1316    N        0.04863    0.87356    0.60139    1.000
    N1317    N        0.10431    0.77334    0.61567    1.000
    N1318    N        0.04571    0.80791    0.59403    1.000
    N1319    N        0.08336    0.83197    0.64246    1.000
    Si1320   Si       0.08811    0.80001    0.58451    1.000
    Si1321   Si       0.11787    0.85571    0.64091    1.000
    Si1322   Si       0.23737    0.84834    0.59163    1.000
    N1323    N        0.22067    0.81412    0.61155    1.000
    N1324    N        0.15446    0.83579    0.62716    1.000
    Si1325   Si       0.19102    0.81982    0.64252    1.000
    Si1326   Si       0.15359    0.83958    0.58421    1.000
    N1327    N        0.99113    0.89851    0.62745    1.000
    N1328    N        0.99625    0.99549    0.59196    1.000
    N1329    N        0.04212    0.94184    0.61423    1.000
    Si1330   Si       0.02351    0.90814    0.59886    1.000
    N1331    N        0.11370    0.89196    0.61557    1.000
    N1332    N        0.17796    0.91673    0.64359    1.000
    N1333    N        0.23481    0.88762    0.61280    1.000
    Si1334   Si       0.15249    0.90985    0.60889    1.000
    N1335    N        0.04750    0.77494    0.66290    1.000
    Si1336   Si       0.01774    0.80200    0.67914    1.000
    Si1337   Si       0.08799    0.78892    0.65283    1.000
    N1338    N        0.01375    0.83837    0.65629    1.000
    N1339    N        0.10973    0.79586    0.69046    1.000
    N1340    N        0.11687    0.87054    0.68334    1.000
    N1341    N        0.18347    0.78632    0.66802    1.000
    N1342    N        0.20708    0.85286    0.66867    1.000
    Si1343   Si       0.23587    0.83135    0.69234    1.000
    N1344    N        0.03297    0.92876    0.68957    1.000
    N1345    N        0.05704    0.98391    0.67081    1.000
    Si1346   Si       0.02995    0.95623    0.65423    1.000
    N1347    N        0.10905    0.94197    0.68750    1.000
    Si1348   Si       0.06842    0.95166    0.70181    1.000
    N1349    N        0.21346    0.98324    0.65772    1.000
    N1350    N        0.14342    0.98463    0.64549    1.000
    Si1351   Si       0.21529    0.89415    0.65124    1.000
    Si1352   Si       0.13173    0.97883    0.68669    1.000
    Si1353   Si       0.17774    0.95813    0.65834    1.000
    N1354    N        0.02969    0.80802    0.72166    1.000
    Si1355   Si       0.00318    0.83921    0.73157    1.000
    N1356    N        0.09073    0.84576    0.74209    1.000
    Si1357   Si       0.04164    0.77513    0.74828    1.000
    N1358    N        0.08461    0.76899    0.74925    1.000
    Si1359   Si       0.06019    0.87615    0.75040    1.000
    N1360    N        0.02068    0.87825    0.73150    1.000
    Si1361   Si       0.11614    0.83556    0.70807    1.000
    Si1362   Si       0.11522    0.76730    0.72113    1.000
    N1363    N        0.21838    0.80702    0.72318    1.000
    N1364    N        0.15819    0.83567    0.72406    1.000
    Si1365   Si       0.16589    0.86663    0.75068    1.000
    N1366    N        0.15843    0.77022    0.73320    1.000
    Si1367   Si       0.17847    0.80026    0.70807    1.000
    N1368    N        0.20774    0.86508    0.76368    1.000
    N1369    N        0.08321    0.91002    0.73624    1.000
    N1370    N        0.06368    0.97262    0.74118    1.000
    Si1371   Si       0.00321    0.91545    0.71758    1.000
    N1372    N        0.99995    0.94662    0.74869    1.000
    Si1373   Si       0.09837    0.99990    0.74678    1.000
    Si1374   Si       0.11536    0.90421    0.70709    1.000
    Si1375   Si       0.02435    0.98395    0.75799    1.000
    N1376    N        0.17003    0.96597    0.70552    1.000
    N1377    N        0.15222    0.90392    0.73097    1.000
    N1378    N        0.12529    0.96629    0.75764    1.000
    Si1379   Si       0.16108    0.94576    0.74235    1.000
    Si1380   Si       0.20207    0.99442    0.71935    1.000
    N1381    N        0.06666    0.87099    0.79356    1.000
    Si1382   Si       0.10250    0.84610    0.78421    1.000
    N1383    N        0.03581    0.77503    0.79437    1.000
    Si1384   Si       0.09998    0.76984    0.79036    1.000
    Si1385   Si       0.00917    0.80865    0.81022    1.000
    N1386    N        0.10107    0.80882    0.80694    1.000
    N1387    N        0.99687    0.83432    0.77470    1.000
    N1388    N        0.19891    0.79261    0.79000    1.000
    N1389    N        0.14416    0.86225    0.78906    1.000
    Si1390   Si       0.22048    0.82344    0.76465    1.000
    Si1391   Si       0.17664    0.75877    0.77239    1.000
    Si1392   Si       0.99172    0.94175    0.79106    1.000
    N1393    N        0.00150    0.90172    0.80229    1.000
    N1394    N        0.08154    0.94056    0.80735    1.000
    N1395    N        0.01825    0.97554    0.80043    1.000
    Si1396   Si       0.08925    0.94235    0.76590    1.000
    Si1397   Si       0.22316    0.90429    0.77595    1.000
    N1398    N        0.19483    0.93772    0.76994    1.000
    N1399    N        0.18904    0.00646    0.76169    1.000
    Si1400   Si       0.20213    0.97419    0.78949    1.000
    N1401    N        0.02020    0.84170    0.83657    1.000
    N1402    N        0.02113    0.78179    0.86053    1.000
    N1403    N        0.09367    0.78526    0.87121    1.000
    Si1404   Si       0.01412    0.82188    0.87698    1.000
    Si1405   Si       0.03490    0.87958    0.82243    1.000
    Si1406   Si       0.12178    0.81288    0.84736    1.000
    N1407    N        0.13612    0.85542    0.85229    1.000
    N1408    N        0.16084    0.79397    0.84997    1.000
    Si1409   Si       0.20021    0.80112    0.83110    1.000
    N1410    N        0.20750    0.84383    0.83170    1.000
    N1411    N        0.21736    0.76743    0.85652    1.000
    Si1412   Si       0.16963    0.86466    0.82399    1.000
    N1413    N        0.04310    0.90530    0.85642    1.000
    N1414    N        0.05656    0.97461    0.86104    1.000
    Si1415   Si       0.07350    0.93595    0.84848    1.000
    Si1416   Si       0.01575    0.98300    0.84425    1.000
    N1417    N        0.11121    0.92722    0.86593    1.000
    N1418    N        0.99300    0.94929    0.85889    1.000
    Si1419   Si       0.08405    0.00776    0.87034    1.000
    N1420    N        0.17378    0.90510    0.84165    1.000
    Si1421   Si       0.14017    0.89517    0.86941    1.000
    N1422    N        0.17870    0.97535    0.82817    1.000
    N1423    N        0.23517    0.94933    0.86132    1.000
    N1424    N        0.12451    0.99363    0.86934    1.000
    Si1425   Si       0.15508    0.00729    0.84145    1.000
    Si1426   Si       0.18995    0.94441    0.85773    1.000
    N1427    N        0.04543    0.82796    0.90359    1.000
    Si1428   Si       0.07817    0.80242    0.90961    1.000
    Si1429   Si       0.11671    0.86284    0.93721    1.000
    N1430    N        0.06897    0.76988    0.93632    1.000
    N1431    N        0.11534    0.82217    0.92265    1.000
    Si1432   Si       0.17915    0.77253    0.88317    1.000
    N1433    N        0.18608    0.79683    0.91953    1.000
    Si1434   Si       0.23632    0.87148    0.92609    1.000
    Si1435   Si       0.14331    0.78675    0.93205    1.000
    N1436    N        0.23643    0.87879    0.88230    1.000
    N1437    N        0.10173    0.95915    0.92938    1.000
    N1438    N        0.03428    0.93555    0.92445    1.000
    Si1439   Si       0.01478    0.92201    0.88608    1.000
    N1440    N        0.13885    0.89172    0.91357    1.000
    N1441    N        0.17038    0.94603    0.89943    1.000
    N1442    N        0.22807    0.99691    0.90467    1.000
    Si1443   Si       0.17124    0.91647    0.93366    1.000
    Si1444   Si       0.12788    0.95693    0.89400    1.000
    Si1445   Si       0.08453    0.77517    0.97761    1.000
    N1446    N        0.07977    0.87690    0.95791    1.000
    N1447    N        0.07411    0.81596    0.98712    1.000
    Si1448   Si       0.09681    0.85256    0.99245    1.000
    N1449    N        0.12910    0.77082    0.97058    1.000
    Si1450   Si       0.18028    0.86043    0.97726    1.000
    N1451    N        0.13710    0.85538    0.97421    1.000
    N1452    N        0.19508    0.81899    0.98263    1.000
    Si1453   Si       0.21677    0.80105    0.95062    1.000
    N1454    N        0.19923    0.88238    0.94474    1.000
    N1455    N        0.00862    0.89450    0.96861    1.000
    Si1456   Si       0.08091    0.96642    0.96542    1.000
    Si1457   Si       0.04926    0.90572    0.95557    1.000
    N1458    N        0.06521    0.93194    0.98808    1.000
    N1459    N        0.04477    0.99571    0.96678    1.000
    N1460    N        0.11007    0.98456    0.98931    1.000
    Si1461   Si       0.01906    0.97550    0.93636    1.000
    N1462    N        0.16808    0.93638    0.97147    1.000
    Si1463   Si       0.23168    0.99513    0.94774    1.000
    N1464    N        0.23645    0.95591    0.96719    1.000
    Si1465   Si       0.20255    0.95291    0.99379    1.000
    Si1466   Si       0.25613    0.05447    0.03909    1.000
    N1467    N        0.25915    0.08929    0.01297    1.000
    N1468    N        0.32151    0.08965    0.04184    1.000
    N1469    N        0.28241    0.02100    0.03334    1.000
    Si1470   Si       0.29939    0.10249    0.00649    1.000
    Si1471   Si       0.36298    0.07320    0.04493    1.000
    N1472    N        0.39097    0.07131    0.01285    1.000
    Si1473   Si       0.41500    0.10841    0.02889    1.000
    N1474    N        0.44969    0.08550    0.01201    1.000
    N1475    N        0.37504    0.11874    0.05142    1.000
    N1476    N        0.44606    0.01426    0.06415    1.000
    N1477    N        0.24180    0.18018    0.03387    1.000
    Si1478   Si       0.28463    0.24902    0.00620    1.000
    N1479    N        0.30436    0.14498    0.01332    1.000
    Si1480   Si       0.27046    0.17158    0.00241    1.000
    Si1481   Si       0.33320    0.13719    0.04801    1.000
    N1482    N        0.24258    0.25537    0.00566    1.000
    N1483    N        0.29677    0.25706    0.04747    1.000
    Si1484   Si       0.47361    0.13925    0.05268    1.000
    N1485    N        0.41889    0.13771    0.99820    1.000
    Si1486   Si       0.40101    0.25429    0.02402    1.000
    N1487    N        0.47041    0.17495    0.02667    1.000
    N1488    N        0.39686    0.20949    0.02682    1.000
    Si1489   Si       0.48848    0.19998    0.05674    1.000
    Si1490   Si       0.30287    0.09098    0.08152    1.000
    N1491    N        0.26438    0.06854    0.07777    1.000
    Si1492   Si       0.24980    0.05340    0.11505    1.000
    N1493    N        0.37604    0.05048    0.07802    1.000
    N1494    N        0.43435    0.12592    0.06320    1.000
    Si1495   Si       0.48796    0.00911    0.06039    1.000
    Si1496   Si       0.37837    0.03592    0.11830    1.000
    N1497    N        0.30567    0.13322    0.08593    1.000
    N1498    N        0.23619    0.23677    0.07334    1.000
    N1499    N        0.34740    0.17517    0.06715    1.000
    Si1500   Si       0.27735    0.24367    0.08686    1.000
    Si1501   Si       0.31707    0.17394    0.09831    1.000
    N1502    N        0.28519    0.20141    0.08899    1.000
    N1503    N        0.35607    0.24267    0.08239    1.000
    Si1504   Si       0.24203    0.19263    0.07572    1.000
    N1505    N        0.46208    0.22628    0.08104    1.000
    Si1506   Si       0.39732    0.14267    0.08280    1.000
    Si1507   Si       0.44902    0.19073    0.10369    1.000
    N1508    N        0.48401    0.16618    0.08796    1.000
    Si1509   Si       0.37866    0.20634    0.06721    1.000
    N1510    N        0.40849    0.18387    0.08982    1.000
    Si1511   Si       0.31382    0.04373    0.14279    1.000
    N1512    N        0.27682    0.02427    0.12903    1.000
    Si1513   Si       0.35758    0.10052    0.13370    1.000
    N1514    N        0.32258    0.07734    0.11804    1.000
    N1515    N        0.23918    0.08190    0.14672    1.000
    N1516    N        0.34277    0.01275    0.13437    1.000
    N1517    N        0.33795    0.11026    0.17036    1.000
    N1518    N        0.38534    0.06720    0.14488    1.000
    N1519    N        0.38842    0.13126    0.12324    1.000
    Si1520   Si       0.29491    0.24654    0.16061    1.000
    Si1521   Si       0.24765    0.17706    0.15477    1.000
    N1522    N        0.32866    0.17182    0.14156    1.000
    N1523    N        0.27102    0.21044    0.16576    1.000
    N1524    N        0.33592    0.23746    0.16919    1.000
    Si1525   Si       0.31077    0.14407    0.17092    1.000
    N1526    N        0.26590    0.14032    0.16986    1.000
    Si1527   Si       0.40647    0.15774    0.15572    1.000
    N1528    N        0.39997    0.24992    0.14222    1.000
    Si1529   Si       0.42156    0.21756    0.16549    1.000
    N1530    N        0.38721    0.19234    0.17479    1.000
    Si1531   Si       0.48047    0.17024    0.16902    1.000
    N1532    N        0.44451    0.18363    0.14639    1.000
    Si1533   Si       0.33438    0.08067    0.20011    1.000
    N1534    N        0.31192    0.04590    0.18551    1.000
    Si1535   Si       0.29196    0.01947    0.21218    1.000
    N1536    N        0.24852    0.09077    0.22208    1.000
    Si1537   Si       0.24137    0.10524    0.18265    1.000
    Si1538   Si       0.40745    0.06126    0.18244    1.000
    N1539    N        0.41034    0.01681    0.18366    1.000
    Si1540   Si       0.38655    0.11675    0.22070    1.000
    Si1541   Si       0.44511    0.11447    0.20651    1.000
    N1542    N        0.37465    0.07320    0.21385    1.000
    N1543    N        0.44991    0.07650    0.18573    1.000
    N1544    N        0.40813    0.12972    0.18697    1.000
    N1545    N        0.32415    0.17099    0.20417    1.000
    Si1546   Si       0.34392    0.19657    0.17495    1.000
    N1547    N        0.47234    0.14719    0.20558    1.000
    N1548    N        0.44733    0.22900    0.19697    1.000
    Si1549   Si       0.43153    0.25675    0.22759    1.000
    Si1550   Si       0.28488    0.08378    0.24779    1.000
    N1551    N        0.26529    0.10459    0.28293    1.000
    N1552    N        0.29280    0.04151    0.24963    1.000
    Si1553   Si       0.30143    0.01690    0.28681    1.000
    N1554    N        0.31706    0.10507    0.23077    1.000
    Si1555   Si       0.44700    0.11417    0.27560    1.000
    Si1556   Si       0.39580    0.06574    0.25416    1.000
    N1557    N        0.42280    0.03217    0.25579    1.000
    N1558    N        0.42054    0.10096    0.24303    1.000
    Si1559   Si       0.46022    0.01223    0.26727    1.000
    N1560    N        0.48943    0.03975    0.28306    1.000
    Si1561   Si       0.32917    0.14737    0.24012    1.000
    N1562    N        0.31280    0.15822    0.27943    1.000
    N1563    N        0.43491    0.15453    0.28454    1.000
    N1564    N        0.36764    0.26130    0.27966    1.000
    Si1565   Si       0.39057    0.15710    0.28688    1.000
    N1566    N        0.37164    0.14243    0.25137    1.000
    N1567    N        0.42733    0.23827    0.26501    1.000
    Si1568   Si       0.46441    0.23229    0.28549    1.000
    N1569    N        0.28693    0.04308    0.31969    1.000
    N1570    N        0.31586    0.11194    0.33516    1.000
    Si1571   Si       0.30924    0.07147    0.34505    1.000
    Si1572   Si       0.28878    0.13237    0.30648    1.000
    Si1573   Si       0.25548    0.03818    0.34971    1.000
    Si1574   Si       0.36797    0.03652    0.32276    1.000
    Si1575   Si       0.40375    0.09147    0.32192    1.000
    N1576    N        0.44651    0.08620    0.30851    1.000
    Si1577   Si       0.48000    0.06193    0.32010    1.000
    N1578    N        0.40677    0.02567    0.33787    1.000
    N1579    N        0.37858    0.06639    0.29462    1.000
    N1580    N        0.38131    0.12955    0.32098    1.000
    N1581    N        0.25804    0.14952    0.33256    1.000
    Si1582   Si       0.33037    0.19241    0.30047    1.000
    N1583    N        0.33145    0.17730    0.34265    1.000
    Si1584   Si       0.26104    0.23920    0.29136    1.000
    Si1585   Si       0.34962    0.13856    0.34943    1.000
    N1586    N        0.30557    0.22637    0.29147    1.000
    Si1587   Si       0.39539    0.23271    0.29729    1.000
    N1588    N        0.37345    0.19585    0.29357    1.000
    N1589    N        0.44579    0.21537    0.32005    1.000
    N1590    N        0.39337    0.24349    0.34049    1.000
    Si1591   Si       0.46318    0.17599    0.31091    1.000
    N1592    N        0.47778    0.15442    0.34405    1.000
    N1593    N        0.27607    0.06936    0.37277    1.000
    Si1594   Si       0.33857    0.02993    0.39647    1.000
    N1595    N        0.34434    0.05107    0.35910    1.000
    Si1596   Si       0.25961    0.09590    0.40214    1.000
    Si1597   Si       0.43066    0.04711    0.36862    1.000
    Si1598   Si       0.40430    0.11067    0.39621    1.000
    N1599    N        0.41133    0.08421    0.36340    1.000
    N1600    N        0.47120    0.04200    0.35653    1.000
    N1601    N        0.36721    0.13016    0.39054    1.000
    Si1602   Si       0.25434    0.16552    0.37379    1.000
    Si1603   Si       0.25731    0.24384    0.36995    1.000
    N1604    N        0.27533    0.20319    0.37127    1.000
    N1605    N        0.33290    0.24218    0.38500    1.000
    Si1606   Si       0.31799    0.20293    0.37518    1.000
    N1607    N        0.27196    0.13853    0.40226    1.000
    N1608    N        0.43881    0.13764    0.40410    1.000
    Si1609   Si       0.46357    0.16808    0.38524    1.000
    Si1610   Si       0.43488    0.23571    0.35655    1.000
    N1611    N        0.43650    0.20151    0.38481    1.000
    N1612    N        0.26802    0.08392    0.44358    1.000
    N1613    N        0.33327    0.04780    0.43620    1.000
    Si1614   Si       0.29688    0.05579    0.45462    1.000
    Si1615   Si       0.42904    0.05074    0.44320    1.000
    N1616    N        0.41460    0.09135    0.43418    1.000
    Si1617   Si       0.45213    0.11566    0.44168    1.000
    N1618    N        0.42606    0.02836    0.40679    1.000
    N1619    N        0.32748    0.13331    0.45211    1.000
    Si1620   Si       0.29682    0.15694    0.43132    1.000
    N1621    N        0.27858    0.23788    0.43326    1.000
    Si1622   Si       0.35694    0.15467    0.42502    1.000
    N1623    N        0.32679    0.18251    0.41075    1.000
    N1624    N        0.28227    0.17556    0.46689    1.000
    N1625    N        0.39292    0.24982    0.41013    1.000
    Si1626   Si       0.46849    0.24603    0.44788    1.000
    N1627    N        0.39133    0.17632    0.43718    1.000
    Si1628   Si       0.41133    0.21166    0.41779    1.000
    N1629    N        0.43883    0.21373    0.45266    1.000
    N1630    N        0.35124    0.04808    0.50599    1.000
    N1631    N        0.28725    0.03088    0.48746    1.000
    N1632    N        0.27512    0.11949    0.50403    1.000
    Si1633   Si       0.24393    0.10620    0.47490    1.000
    Si1634   Si       0.25106    0.01191    0.50178    1.000
    Si1635   Si       0.35770    0.02794    0.46848    1.000
    Si1636   Si       0.31135    0.04358    0.52255    1.000
    Si1637   Si       0.48427    0.05636    0.50706    1.000
    Si1638   Si       0.39362    0.05376    0.51248    1.000
    N1639    N        0.39921    0.09814    0.51387    1.000
    N1640    N        0.40058    0.03541    0.47282    1.000
    N1641    N        0.48213    0.01704    0.52468    1.000
    N1642    N        0.46335    0.05932    0.46812    1.000
    Si1643   Si       0.33416    0.23776    0.52550    1.000
    N1644    N        0.33077    0.16252    0.52110    1.000
    N1645    N        0.32783    0.22926    0.48238    1.000
    Si1646   Si       0.30615    0.14668    0.48962    1.000
    N1647    N        0.24988    0.22937    0.49005    1.000
    Si1648   Si       0.28809    0.21793    0.47130    1.000
    Si1649   Si       0.42488    0.13241    0.51626    1.000
    N1650    N        0.39986    0.16810    0.50660    1.000
    Si1651   Si       0.42341    0.17613    0.46977    1.000
    Si1652   Si       0.47442    0.25260    0.52359    1.000
    N1653    N        0.44640    0.13884    0.47796    1.000
    N1654    N        0.30310    0.07527    0.55068    1.000
    Si1655   Si       0.27868    0.11175    0.54616    1.000
    N1656    N        0.24832    0.03216    0.54086    1.000
    Si1657   Si       0.25954    0.01088    0.57730    1.000
    N1658    N        0.46706    0.08455    0.53622    1.000
    N1659    N        0.41723    0.03396    0.54258    1.000
    Si1660   Si       0.44322    0.06021    0.56513    1.000
    Si1661   Si       0.27347    0.24243    0.56557    1.000
    N1662    N        0.28943    0.14683    0.57068    1.000
    Si1663   Si       0.31345    0.17888    0.55849    1.000
    N1664    N        0.30262    0.21809    0.54512    1.000
    N1665    N        0.35206    0.17748    0.57839    1.000
    N1666    N        0.23494    0.22175    0.55792    1.000
    N1667    N        0.40902    0.25290    0.58309    1.000
    N1668    N        0.43659    0.14216    0.55722    1.000
    N1669    N        0.45359    0.21686    0.54386    1.000
    N1670    N        0.37454    0.22169    0.53362    1.000
    Si1671   Si       0.41477    0.23784    0.54230    1.000
    Si1672   Si       0.46094    0.17997    0.56515    1.000
    Si1673   Si       0.37126    0.17880    0.53728    1.000
    N1674    N        0.30617    0.09793    0.61895    1.000
    N1675    N        0.28754    0.03075    0.60453    1.000
    Si1676   Si       0.31314    0.06396    0.59021    1.000
    N1677    N        0.35295    0.04571    0.59135    1.000
    Si1678   Si       0.38615    0.06434    0.61037    1.000
    N1679    N        0.41126    0.03492    0.63271    1.000
    N1680    N        0.47952    0.11441    0.59617    1.000
    Si1681   Si       0.43773    0.12223    0.59403    1.000
    N1682    N        0.46596    0.04349    0.59708    1.000
    Si1683   Si       0.45340    0.04851    0.64114    1.000
    N1684    N        0.43088    0.13252    0.63443    1.000
    N1685    N        0.41743    0.08460    0.58954    1.000
    N1686    N        0.37049    0.09044    0.64220    1.000
    Si1687   Si       0.28991    0.13740    0.61345    1.000
    N1688    N        0.24435    0.13864    0.62127    1.000
    N1689    N        0.31389    0.16602    0.63704    1.000
    Si1690   Si       0.25537    0.24020    0.63434    1.000
    Si1691   Si       0.35130    0.18240    0.62232    1.000
    N1692    N        0.28752    0.24465    0.60459    1.000
    N1693    N        0.34736    0.22619    0.63251    1.000
    Si1694   Si       0.43696    0.23566    0.60983    1.000
    N1695    N        0.44779    0.19257    0.60478    1.000
    Si1696   Si       0.42872    0.17538    0.63967    1.000
    N1697    N        0.32161    0.04263    0.66595    1.000
    Si1698   Si       0.32807    0.08501    0.65602    1.000
    N1699    N        0.31964    0.10631    0.69382    1.000
    N1700    N        0.24640    0.04437    0.65767    1.000
    Si1701   Si       0.28515    0.02472    0.64774    1.000
    Si1702   Si       0.40809    0.10579    0.65876    1.000
    N1703    N        0.43732    0.07625    0.67653    1.000
    Si1704   Si       0.47861    0.08812    0.69014    1.000
    N1705    N        0.39199    0.12745    0.69408    1.000
    N1706    N        0.25714    0.15866    0.68598    1.000
    N1707    N        0.27139    0.22098    0.66964    1.000
    Si1708   Si       0.29199    0.18206    0.67204    1.000
    Si1709   Si       0.40660    0.16672    0.69794    1.000
    Si1710   Si       0.38203    0.22327    0.66200    1.000
    N1711    N        0.38579    0.17906    0.64663    1.000
    Si1712   Si       0.45094    0.22156    0.68431    1.000
    Si1713   Si       0.47788    0.15214    0.69813    1.000
    N1714    N        0.44521    0.17885    0.68114    1.000
    N1715    N        0.42436    0.22970    0.65012    1.000
    N1716    N        0.31266    0.03765    0.73956    1.000
    Si1717   Si       0.33982    0.03667    0.70501    1.000
    Si1718   Si       0.36065    0.10379    0.71529    1.000
    N1719    N        0.34554    0.12599    0.74705    1.000
    Si1720   Si       0.41812    0.06118    0.71648    1.000
    N1721    N        0.42841    0.01935    0.72043    1.000
    N1722    N        0.46585    0.11751    0.72028    1.000
    Si1723   Si       0.43645    0.12373    0.75434    1.000
    N1724    N        0.37517    0.06152    0.70924    1.000
    N1725    N        0.42191    0.07953    0.75656    1.000
    Si1726   Si       0.30797    0.13590    0.72378    1.000
    N1727    N        0.24769    0.21111    0.73933    1.000
    N1728    N        0.27339    0.14521    0.74949    1.000
    Si1729   Si       0.34470    0.20303    0.72551    1.000
    N1730    N        0.32430    0.24038    0.72032    1.000
    Si1731   Si       0.24632    0.17073    0.72591    1.000
    Si1732   Si       0.24764    0.23586    0.70422    1.000
    N1733    N        0.31847    0.17419    0.70595    1.000
    N1734    N        0.38347    0.20447    0.70576    1.000
    N1735    N        0.44096    0.23311    0.72508    1.000
    N1736    N        0.42710    0.16528    0.74050    1.000
    Si1737   Si       0.41073    0.20742    0.74517    1.000
    N1738    N        0.28820    0.09285    0.78494    1.000
    N1739    N        0.25057    0.03117    0.77707    1.000
    Si1740   Si       0.28780    0.05216    0.77020    1.000
    N1741    N        0.30617    0.02988    0.80609    1.000
    Si1742   Si       0.25342    0.11018    0.76362    1.000
    Si1743   Si       0.45546    0.07467    0.78436    1.000
    N1744    N        0.46937    0.11540    0.78516    1.000
    Si1745   Si       0.39487    0.08742    0.79780    1.000
    N1746    N        0.39972    0.13023    0.78973    1.000
    N1747    N        0.32156    0.21006    0.80697    1.000
    N1748    N        0.33281    0.14317    0.81210    1.000
    N1749    N        0.25660    0.24190    0.81301    1.000
    Si1750   Si       0.30162    0.24549    0.81306    1.000
    Si1751   Si       0.36022    0.14939    0.77918    1.000
    N1752    N        0.36800    0.19150    0.76347    1.000
    Si1753   Si       0.48785    0.14513    0.80954    1.000
    N1754    N        0.45100    0.16983    0.81865    1.000
    Si1755   Si       0.36604    0.21392    0.80203    1.000
    N1756    N        0.41699    0.22452    0.78725    1.000
    N1757    N        0.48340    0.23567    0.80533    1.000
    N1758    N        0.29753    0.08446    0.85028    1.000
    N1759    N        0.34697    0.02463    0.85314    1.000
    Si1760   Si       0.32814    0.05818    0.83427    1.000
    N1761    N        0.24435    0.01920    0.84689    1.000
    N1762    N        0.36391    0.08119    0.82634    1.000
    Si1763   Si       0.29881    0.11666    0.81911    1.000
    Si1764   Si       0.43355    0.05707    0.86026    1.000
    Si1765   Si       0.37246    0.10053    0.86560    1.000
    N1766    N        0.42055    0.01574    0.86423    1.000
    N1767    N        0.48318    0.01278    0.84887    1.000
    N1768    N        0.47025    0.07489    0.87926    1.000
    N1769    N        0.42848    0.06954    0.81895    1.000
    Si1770   Si       0.31109    0.17659    0.83179    1.000
    N1771    N        0.27603    0.15315    0.83043    1.000
    N1772    N        0.31387    0.25122    0.85392    1.000
    N1773    N        0.33011    0.18151    0.87340    1.000
    N1774    N        0.37141    0.24058    0.87958    1.000
    N1775    N        0.39927    0.13655    0.86173    1.000
    Si1776   Si       0.41177    0.15487    0.82249    1.000
    Si1777   Si       0.37451    0.17430    0.87009    1.000
    N1778    N        0.38481    0.18658    0.83002    1.000
    N1779    N        0.44579    0.21941    0.86382    1.000
    Si1780   Si       0.44727    0.21517    0.81947    1.000
    N1781    N        0.30288    0.06169    0.91849    1.000
    Si1782   Si       0.27691    0.08403    0.88970    1.000
    N1783    N        0.28003    0.12380    0.90218    1.000
    N1784    N        0.34723    0.11517    0.89840    1.000
    Si1785   Si       0.29823    0.02082    0.93585    1.000
    Si1786   Si       0.33377    0.08677    0.93117    1.000
    Si1787   Si       0.40386    0.08197    0.92614    1.000
    N1788    N        0.39820    0.06939    0.88436    1.000
    N1789    N        0.41780    0.12269    0.93152    1.000
    N1790    N        0.48398    0.02109    0.91959    1.000
    Si1791   Si       0.38131    0.02551    0.87833    1.000
    Si1792   Si       0.48845    0.11347    0.88126    1.000
    N1793    N        0.31755    0.23119    0.92325    1.000
    Si1794   Si       0.31665    0.14637    0.90066    1.000
    N1795    N        0.25960    0.18646    0.91815    1.000
    Si1796   Si       0.32926    0.22378    0.88379    1.000
    Si1797   Si       0.25352    0.14473    0.93166    1.000
    N1798    N        0.24552    0.24889    0.92878    1.000
    N1799    N        0.46464    0.15105    0.88949    1.000
    Si1800   Si       0.42308    0.14855    0.89962    1.000
    N1801    N        0.40236    0.18614    0.90062    1.000
    N1802    N        0.42516    0.24659    0.92568    1.000
    N1803    N        0.48627    0.20703    0.92079    1.000
    Si1804   Si       0.41231    0.22778    0.89076    1.000
    Si1805   Si       0.47602    0.19265    0.88090    1.000
    N1806    N        0.32309    0.10564    0.96993    1.000
    N1807    N        0.26749    0.01264    0.96286    1.000
    N1808    N        0.32811    0.01423    0.96745    1.000
    Si1809   Si       0.36632    0.02213    0.95091    1.000
    Si1810   Si       0.47597    0.04841    0.95462    1.000
    Si1811   Si       0.43910    0.11108    0.96851    1.000
    N1812    N        0.43494    0.06806    0.95391    1.000
    N1813    N        0.46292    0.02361    0.98965    1.000
    N1814    N        0.39763    0.01217    0.98152    1.000
    N1815    N        0.36774    0.06315    0.93898    1.000
    Si1816   Si       0.42316    0.04727    0.99428    1.000
    N1817    N        0.47721    0.13425    0.96583    1.000
    Si1818   Si       0.33179    0.14789    0.97613    1.000
    N1819    N        0.24880    0.14481    0.97510    1.000
    N1820    N        0.28486    0.21016    0.98363    1.000
    Si1821   Si       0.29191    0.20210    0.94281    1.000
    N1822    N        0.31564    0.16519    0.94073    1.000
    Si1823   Si       0.45799    0.22933    0.94737    1.000
    N1824    N        0.48720    0.25732    0.96560    1.000
    Si1825   Si       0.47448    0.17345    0.98425    1.000
    N1826    N        0.44145    0.19807    0.97438    1.000
    N1827    N        0.36642    0.17052    0.98387    1.000
    Si1828   Si       0.40658    0.17966    0.99594    1.000
    N1829    N        0.27433    0.32963    0.01601    1.000
    Si1830   Si       0.30239    0.34618    0.04889    1.000
    N1831    N        0.31773    0.38165    0.03035    1.000
    N1832    N        0.36116    0.27221    0.02096    1.000
    Si1833   Si       0.39314    0.35311    0.00671    1.000
    N1834    N        0.47758    0.28195    0.03566    1.000
    N1835    N        0.40671    0.33415    0.04455    1.000
    N1836    N        0.48329    0.34849    0.05367    1.000
    N1837    N        0.25950    0.43309    0.03649    1.000
    N1838    N        0.33725    0.44787    0.03424    1.000
    Si1839   Si       0.48430    0.43573    0.01142    1.000
    N1840    N        0.48562    0.47580    0.02954    1.000
    N1841    N        0.44167    0.42191    0.02422    1.000
    N1842    N        0.37890    0.39445    0.01205    1.000
    N1843    N        0.39472    0.50133    0.05248    1.000
    N1844    N        0.26604    0.35300    0.07209    1.000
    N1845    N        0.33214    0.31599    0.06032    1.000
    Si1846   Si       0.25281    0.36095    0.11219    1.000
    N1847    N        0.36381    0.37219    0.07662    1.000
    Si1848   Si       0.33629    0.27216    0.05720    1.000
    N1849    N        0.41295    0.26335    0.06473    1.000
    Si1850   Si       0.37289    0.32989    0.07197    1.000
    N1851    N        0.45458    0.30495    0.09450    1.000
    Si1852   Si       0.44369    0.34184    0.07179    1.000
    Si1853   Si       0.45657    0.26783    0.07211    1.000
    N1854    N        0.38884    0.30768    0.10483    1.000
    Si1855   Si       0.39115    0.26453    0.10167    1.000
    N1856    N        0.31193    0.41737    0.08542    1.000
    N1857    N        0.28742    0.48332    0.07565    1.000
    N1858    N        0.34906    0.47735    0.09768    1.000
    Si1859   Si       0.31080    0.48808    0.11270    1.000
    Si1860   Si       0.34905    0.40579    0.05364    1.000
    Si1861   Si       0.29732    0.44379    0.05332    1.000
    N1862    N        0.43460    0.38356    0.08903    1.000
    Si1863   Si       0.39132    0.39475    0.10375    1.000
    Si1864   Si       0.36693    0.46945    0.06051    1.000
    N1865    N        0.38704    0.43013    0.06931    1.000
    N1866    N        0.45609    0.44932    0.08756    1.000
    Si1867   Si       0.43106    0.42221    0.06465    1.000
    Si1868   Si       0.48412    0.47942    0.07292    1.000
    N1869    N        0.27331    0.33431    0.14049    1.000
    Si1870   Si       0.25780    0.29271    0.14794    1.000
    N1871    N        0.28217    0.26562    0.12348    1.000
    N1872    N        0.47882    0.26208    0.14662    1.000
    Si1873   Si       0.39880    0.32321    0.14479    1.000
    N1874    N        0.38763    0.36442    0.13808    1.000
    Si1875   Si       0.47199    0.30288    0.13446    1.000
    N1876    N        0.43864    0.31483    0.15931    1.000
    N1877    N        0.47617    0.37553    0.15029    1.000
    Si1878   Si       0.37109    0.26359    0.17203    1.000
    N1879    N        0.37025    0.30765    0.17287    1.000
    N1880    N        0.31802    0.38598    0.15176    1.000
    Si1881   Si       0.29938    0.41587    0.12624    1.000
    N1882    N        0.30610    0.45554    0.14206    1.000
    N1883    N        0.25910    0.40299    0.12886    1.000
    Si1884   Si       0.36111    0.39175    0.15988    1.000
    N1885    N        0.35742    0.48755    0.16927    1.000
    Si1886   Si       0.24134    0.48775    0.16916    1.000
    N1887    N        0.47902    0.49008    0.14480    1.000
    Si1888   Si       0.46571    0.40049    0.11608    1.000
    N1889    N        0.37501    0.42354    0.13468    1.000
    N1890    N        0.41028    0.48663    0.12261    1.000
    N1891    N        0.45187    0.42708    0.14743    1.000
    Si1892   Si       0.44671    0.46384    0.12845    1.000
    Si1893   Si       0.37338    0.46677    0.13311    1.000
    N1894    N        0.31187    0.33612    0.19953    1.000
    Si1895   Si       0.35555    0.33667    0.20069    1.000
    N1896    N        0.27788    0.27992    0.18454    1.000
    Si1897   Si       0.28913    0.30274    0.21975    1.000
    N1898    N        0.24555    0.36840    0.19036    1.000
    Si1899   Si       0.28723    0.36047    0.17120    1.000
    N1900    N        0.44154    0.37030    0.20670    1.000
    Si1901   Si       0.45097    0.32840    0.20148    1.000
    N1902    N        0.38842    0.26135    0.21253    1.000
    N1903    N        0.28213    0.50001    0.18302    1.000
    N1904    N        0.32699    0.44631    0.21285    1.000
    Si1905   Si       0.31755    0.47475    0.17951    1.000
    N1906    N        0.36474    0.38007    0.19961    1.000
    Si1907   Si       0.46262    0.40479    0.18361    1.000
    Si1908   Si       0.44249    0.47165    0.22438    1.000
    N1909    N        0.44231    0.43036    0.21403    1.000
    N1910    N        0.42765    0.49488    0.19110    1.000
    N1911    N        0.31701    0.27977    0.24397    1.000
    N1912    N        0.25614    0.32087    0.24471    1.000
    Si1913   Si       0.32547    0.26431    0.28569    1.000
    Si1914   Si       0.36353    0.28067    0.24112    1.000
    N1915    N        0.36972    0.32316    0.23891    1.000
    Si1916   Si       0.36884    0.35502    0.26893    1.000
    Si1917   Si       0.48098    0.30115    0.26698    1.000
    N1918    N        0.41078    0.36714    0.26751    1.000
    N1919    N        0.45066    0.29594    0.23397    1.000
    N1920    N        0.23741    0.49373    0.26300    1.000
    N1921    N        0.30804    0.50462    0.24460    1.000
    N1922    N        0.33942    0.38696    0.25992    1.000
    N1923    N        0.25187    0.38947    0.25390    1.000
    N1924    N        0.30165    0.43840    0.27453    1.000
    Si1925   Si       0.32541    0.46674    0.25231    1.000
    N1926    N        0.35134    0.47894    0.28462    1.000
    Si1927   Si       0.26593    0.41513    0.28394    1.000
    Si1928   Si       0.35406    0.41281    0.22814    1.000
    N1929    N        0.42092    0.48951    0.25861    1.000
    N1930    N        0.48250    0.47227    0.24166    1.000
    Si1931   Si       0.39232    0.46418    0.27939    1.000
    Si1932   Si       0.48724    0.42742    0.24131    1.000
    Si1933   Si       0.48601    0.49498    0.27799    1.000
    N1934    N        0.38722    0.42921    0.25105    1.000
    N1935    N        0.46217    0.40324    0.26756    1.000
    Si1936   Si       0.42390    0.39767    0.23917    1.000
    N1937    N        0.32159    0.28715    0.32113    1.000
    N1938    N        0.26501    0.32241    0.31333    1.000
    Si1939   Si       0.34527    0.31949    0.34031    1.000
    Si1940   Si       0.27048    0.36033    0.33724    1.000
    Si1941   Si       0.28443    0.29660    0.34229    1.000
    N1942    N        0.25596    0.26122    0.32744    1.000
    N1943    N        0.36563    0.34487    0.31139    1.000
    N1944    N        0.48375    0.26931    0.29508    1.000
    Si1945   Si       0.38043    0.37751    0.33330    1.000
    N1946    N        0.42366    0.38141    0.32845    1.000
    Si1947   Si       0.44568    0.37011    0.29132    1.000
    N1948    N        0.48729    0.37872    0.33205    1.000
    N1949    N        0.47022    0.33516    0.29028    1.000
    N1950    N        0.28894    0.39360    0.31602    1.000
    Si1951   Si       0.32574    0.40835    0.29587    1.000
    Si1952   Si       0.32916    0.49831    0.31858    1.000
    N1953    N        0.35896    0.41247    0.32261    1.000
    N1954    N        0.40197    0.46639    0.32370    1.000
    Si1955   Si       0.43656    0.48883    0.33822    1.000
    Si1956   Si       0.37011    0.44747    0.34616    1.000
    N1957    N        0.47048    0.47697    0.31405    1.000
    Si1958   Si       0.30860    0.36800    0.38981    1.000
    N1959    N        0.27950    0.28110    0.38369    1.000
    N1960    N        0.26369    0.37137    0.38451    1.000
    N1961    N        0.30946    0.33994    0.35608    1.000
    N1962    N        0.37324    0.30132    0.36764    1.000
    N1963    N        0.37528    0.36779    0.37462    1.000
    Si1964   Si       0.39826    0.33256    0.38696    1.000
    N1965    N        0.43996    0.33638    0.37798    1.000
    N1966    N        0.45929    0.27198    0.36131    1.000
    Si1967   Si       0.45347    0.37264    0.35817    1.000
    Si1968   Si       0.46312    0.30363    0.39521    1.000
    Si1969   Si       0.37039    0.25907    0.37298    1.000
    Si1970   Si       0.24312    0.40857    0.39823    1.000
    N1971    N        0.32322    0.40954    0.39138    1.000
    N1972    N        0.26142    0.44273    0.37804    1.000
    Si1973   Si       0.30698    0.44891    0.38143    1.000
    N1974    N        0.33059    0.46883    0.35080    1.000
    Si1975   Si       0.36557    0.40010    0.40142    1.000
    Si1976   Si       0.42994    0.43749    0.39550    1.000
    N1977    N        0.38888    0.43445    0.38485    1.000
    N1978    N        0.44891    0.47027    0.37710    1.000
    N1979    N        0.45461    0.40102    0.39016    1.000
    Si1980   Si       0.48224    0.49272    0.39267    1.000
    N1981    N        0.31654    0.35329    0.42821    1.000
    N1982    N        0.32250    0.28676    0.44390    1.000
    Si1983   Si       0.30667    0.26179    0.41233    1.000
    Si1984   Si       0.31695    0.32691    0.45969    1.000
    N1985    N        0.23588    0.34421    0.44585    1.000
    N1986    N        0.44908    0.28079    0.43015    1.000
    N1987    N        0.39551    0.32350    0.42897    1.000
    Si1988   Si       0.40586    0.28193    0.43735    1.000
    N1989    N        0.46463    0.36604    0.45791    1.000
    Si1990   Si       0.38628    0.35272    0.46128    1.000
    N1991    N        0.31401    0.47184    0.41818    1.000
    N1992    N        0.25819    0.49576    0.44110    1.000
    N1993    N        0.24896    0.41911    0.43954    1.000
    Si1994   Si       0.33114    0.46604    0.45973    1.000
    Si1995   Si       0.25676    0.45684    0.46021    1.000
    Si1996   Si       0.40083    0.42483    0.46025    1.000
    Si1997   Si       0.46633    0.46280    0.46039    1.000
    Si1998   Si       0.47004    0.39942    0.43174    1.000
    N1999    N        0.38213    0.39148    0.44064    1.000
    N2000    N        0.44042    0.43315    0.44058    1.000
    N2001    N        0.28674    0.32447    0.49221    1.000
    N2002    N        0.35041    0.33970    0.48448    1.000
    Si2003   Si       0.34515    0.27071    0.47712    1.000
    Si2004   Si       0.24683    0.33622    0.48581    1.000
    N2005    N        0.33278    0.28045    0.51833    1.000
    N2006    N        0.41464    0.33989    0.49645    1.000
    Si2007   Si       0.40502    0.30103    0.50955    1.000
    Si2008   Si       0.44287    0.37145    0.49591    1.000
    N2009    N        0.38791    0.27777    0.47542    1.000
    N2010    N        0.43425    0.27175    0.52261    1.000
    N2011    N        0.29601    0.45448    0.48314    1.000
    N2012    N        0.48908    0.44464    0.49315    1.000
    N2013    N        0.37366    0.45831    0.46862    1.000
    N2014    N        0.43808    0.49162    0.47921    1.000
    Si2015   Si       0.39989    0.48034    0.49554    1.000
    N2016    N        0.41464    0.40466    0.49669    1.000
    N2017    N        0.32298    0.34267    0.55345    1.000
    N2018    N        0.27207    0.28448    0.55024    1.000
    N2019    N        0.24854    0.34894    0.55962    1.000
    Si2020   Si       0.30319    0.31046    0.52916    1.000
    Si2021   Si       0.36070    0.34262    0.52701    1.000
    Si2022   Si       0.45275    0.37251    0.57020    1.000
    N2023    N        0.38613    0.31394    0.54896    1.000
    N2024    N        0.46230    0.33034    0.58070    1.000
    N2025    N        0.46948    0.37512    0.53070    1.000
    N2026    N        0.36231    0.38629    0.53534    1.000
    Si2027   Si       0.32400    0.38761    0.55428    1.000
    Si2028   Si       0.24560    0.38808    0.53936    1.000
    N2029    N        0.25329    0.46592    0.54816    1.000
    N2030    N        0.28720    0.40451    0.53686    1.000
    N2031    N        0.32245    0.46405    0.54976    1.000
    Si2032   Si       0.35952    0.48477    0.54226    1.000
    Si2033   Si       0.28944    0.44847    0.52756    1.000
    N2034    N        0.47248    0.47371    0.56390    1.000
    N2035    N        0.41719    0.39902    0.57093    1.000
    N2036    N        0.39094    0.45602    0.53263    1.000
    Si2037   Si       0.39572    0.41393    0.53468    1.000
    N2038    N        0.28704    0.32895    0.61366    1.000
    Si2039   Si       0.32949    0.32826    0.59666    1.000
    Si2040   Si       0.25338    0.35293    0.60136    1.000
    N2041    N        0.35712    0.35384    0.61879    1.000
    N2042    N        0.34805    0.28878    0.59938    1.000
    N2043    N        0.24182    0.27981    0.63939    1.000
    Si2044   Si       0.32511    0.26072    0.62143    1.000
    Si2045   Si       0.45573    0.30886    0.61814    1.000
    N2046    N        0.41196    0.30826    0.62635    1.000
    N2047    N        0.46767    0.26857    0.61884    1.000
    N2048    N        0.42898    0.37345    0.63015    1.000
    Si2049   Si       0.39557    0.34743    0.63620    1.000
    Si2050   Si       0.47249    0.37489    0.63837    1.000
    Si2051   Si       0.38826    0.29183    0.58600    1.000
    N2052    N        0.25437    0.38607    0.62848    1.000
    N2053    N        0.34426    0.47410    0.62090    1.000
    N2054    N        0.27874    0.44920    0.60838    1.000
    Si2055   Si       0.34563    0.39462    0.62589    1.000
    Si2056   Si       0.31996    0.45276    0.59139    1.000
    N2057    N        0.32956    0.41001    0.58968    1.000
    Si2058   Si       0.27743    0.42062    0.64091    1.000
    Si2059   Si       0.24112    0.44630    0.58581    1.000
    Si2060   Si       0.48332    0.43827    0.59065    1.000
    Si2061   Si       0.43993    0.48554    0.62748    1.000
    Si2062   Si       0.41905    0.41105    0.61126    1.000
    N2063    N        0.47820    0.50255    0.64210    1.000
    N2064    N        0.38284    0.41860    0.63402    1.000
    N2065    N        0.48001    0.39227    0.59868    1.000
    N2066    N        0.44550    0.44459    0.61529    1.000
    N2067    N        0.31044    0.28232    0.65796    1.000
    N2068    N        0.25708    0.33146    0.67615    1.000
    Si2069   Si       0.33677    0.27167    0.69072    1.000
    Si2070   Si       0.27690    0.30528    0.64950    1.000
    N2071    N        0.39278    0.33663    0.67982    1.000
    Si2072   Si       0.40615    0.29613    0.66859    1.000
    Si2073   Si       0.47514    0.32266    0.68894    1.000
    N2074    N        0.44139    0.29414    0.69443    1.000
    N2075    N        0.37583    0.26615    0.67433    1.000
    N2076    N        0.48434    0.33181    0.64468    1.000
    N2077    N        0.25403    0.44590    0.67046    1.000
    N2078    N        0.31664    0.40864    0.65714    1.000
    N2079    N        0.29803    0.49690    0.68417    1.000
    N2080    N        0.35724    0.45320    0.69033    1.000
    Si2081   Si       0.32495    0.42198    0.69594    1.000
    Si2082   Si       0.33805    0.49350    0.69929    1.000
    N2083    N        0.42014    0.40374    0.70609    1.000
    Si2084   Si       0.37189    0.45788    0.64877    1.000
    N2085    N        0.40751    0.48278    0.65678    1.000
    N2086    N        0.48723    0.40161    0.67161    1.000
    N2087    N        0.26204    0.27447    0.72116    1.000
    N2088    N        0.33687    0.29925    0.72514    1.000
    Si2089   Si       0.30177    0.27177    0.74135    1.000
    N2090    N        0.24288    0.34337    0.74177    1.000
    Si2091   Si       0.33715    0.37910    0.75796    1.000
    Si2092   Si       0.23999    0.31101    0.71288    1.000
    Si2093   Si       0.36876    0.31707    0.74967    1.000
    Si2094   Si       0.44049    0.27517    0.73516    1.000
    N2095    N        0.39702    0.35290    0.74965    1.000
    Si2096   Si       0.41249    0.36053    0.71031    1.000
    N2097    N        0.40171    0.28649    0.75687    1.000
    N2098    N        0.45684    0.35626    0.70883    1.000
    N2099    N        0.35125    0.39630    0.72012    1.000
    N2100    N        0.34106    0.49519    0.74085    1.000
    N2101    N        0.29674    0.43868    0.72198    1.000
    Si2102   Si       0.27099    0.42146    0.75446    1.000
    N2103    N        0.24402    0.47959    0.73227    1.000
    Si2104   Si       0.27264    0.46774    0.70212    1.000
    N2105    N        0.39831    0.44664    0.74864    1.000
    Si2106   Si       0.38334    0.48801    0.75242    1.000
    Si2107   Si       0.46470    0.39810    0.70787    1.000
    N2108    N        0.46989    0.42262    0.74272    1.000
    Si2109   Si       0.38452    0.42487    0.71536    1.000
    Si2110   Si       0.31262    0.31512    0.80042    1.000
    N2111    N        0.30604    0.27637    0.78343    1.000
    Si2112   Si       0.25945    0.35817    0.77888    1.000
    N2113    N        0.33981    0.33914    0.77603    1.000
    N2114    N        0.27361    0.33092    0.81034    1.000
    Si2115   Si       0.39494    0.37244    0.78873    1.000
    Si2116   Si       0.47690    0.27957    0.80360    1.000
    Si2117   Si       0.40816    0.26726    0.79429    1.000
    N2118    N        0.43696    0.28586    0.81813    1.000
    N2119    N        0.39847    0.34538    0.82194    1.000
    N2120    N        0.37159    0.25569    0.81428    1.000
    N2121    N        0.47338    0.28835    0.76121    1.000
    Si2122   Si       0.35041    0.50921    0.81690    1.000
    N2123    N        0.29306    0.38331    0.76337    1.000
    N2124    N        0.26500    0.43960    0.79438    1.000
    N2125    N        0.31578    0.48561    0.80273    1.000
    N2126    N        0.35917    0.39992    0.78846    1.000
    N2127    N        0.45490    0.45371    0.80356    1.000
    Si2128   Si       0.48208    0.48364    0.79149    1.000
    N2129    N        0.42837    0.39848    0.79180    1.000
    Si2130   Si       0.43591    0.43377    0.76614    1.000
    N2131    N        0.38548    0.49504    0.79491    1.000
    N2132    N        0.33648    0.30967    0.83527    1.000
    Si2133   Si       0.26072    0.32872    0.85017    1.000
    N2134    N        0.25137    0.29017    0.86901    1.000
    Si2135   Si       0.35619    0.27324    0.85121    1.000
    N2136    N        0.34777    0.38130    0.85499    1.000
    N2137    N        0.28567    0.35478    0.87498    1.000
    Si2138   Si       0.36123    0.33919    0.85444    1.000
    Si2139   Si       0.42327    0.31837    0.84316    1.000
    N2140    N        0.45781    0.33478    0.86352    1.000
    N2141    N        0.39010    0.30489    0.86872    1.000
    Si2142   Si       0.35146    0.41619    0.82614    1.000
    Si2143   Si       0.29219    0.39795    0.86584    1.000
    N2144    N        0.26328    0.48937    0.84564    1.000
    N2145    N        0.31509    0.43280    0.84643    1.000
    N2146    N        0.25133    0.40755    0.85530    1.000
    Si2147   Si       0.28951    0.46011    0.82454    1.000
    Si2148   Si       0.43428    0.42260    0.82755    1.000
    N2149    N        0.43057    0.50003    0.85053    1.000
    N2150    N        0.39384    0.42381    0.84106    1.000
    N2151    N        0.45955    0.41045    0.86168    1.000
    N2152    N        0.34909    0.33790    0.90337    1.000
    N2153    N        0.29516    0.29887    0.91939    1.000
    Si2154   Si       0.25248    0.28975    0.91445    1.000
    Si2155   Si       0.30646    0.33961    0.90975    1.000
    Si2156   Si       0.39232    0.33030    0.90529    1.000
    N2157    N        0.46552    0.37221    0.92419    1.000
    N2158    N        0.40720    0.36887    0.88956    1.000
    Si2159   Si       0.45049    0.37294    0.88258    1.000
    N2160    N        0.41428    0.31715    0.93818    1.000
    Si2161   Si       0.32654    0.44438    0.88972    1.000
    Si2162   Si       0.27513    0.49908    0.88750    1.000
    N2163    N        0.31578    0.48575    0.89510    1.000
    N2164    N        0.29918    0.41198    0.90507    1.000
    N2165    N        0.25080    0.47879    0.91498    1.000
    Si2166   Si       0.48818    0.43785    0.88119    1.000
    Si2167   Si       0.38351    0.40171    0.87657    1.000
    N2168    N        0.36359    0.42846    0.90328    1.000
    N2169    N        0.45933    0.46161    0.90574    1.000
    Si2170   Si       0.45082    0.50292    0.88880    1.000
    Si2171   Si       0.28087    0.32079    0.97426    1.000
    N2172    N        0.30502    0.27875    0.98057    1.000
    N2173    N        0.29570    0.35516    0.95052    1.000
    Si2174   Si       0.34699    0.29660    0.98900    1.000
    N2175    N        0.24385    0.30570    0.95764    1.000
    Si2176   Si       0.34056    0.37959    0.99364    1.000
    N2177    N        0.35498    0.33821    0.99076    1.000
    Si2178   Si       0.32215    0.26994    0.93901    1.000
    N2179    N        0.36226    0.27861    0.94917    1.000
    Si2180   Si       0.44640    0.34479    0.95392    1.000
    Si2181   Si       0.40424    0.27683    0.95120    1.000
    N2182    N        0.47650    0.32202    0.97530    1.000
    N2183    N        0.42606    0.36788    0.98303    1.000
    N2184    N        0.42415    0.27111    0.98952    1.000
    Si2185   Si       0.46679    0.28522    0.99321    1.000
    Si2186   Si       0.25701    0.44535    0.99463    1.000
    Si2187   Si       0.29730    0.40040    0.94545    1.000
    N2188    N        0.33352    0.41434    0.96750    1.000
    N2189    N        0.26136    0.41384    0.96704    1.000
    N2190    N        0.35217    0.47449    0.96164    1.000
    N2191    N        0.29072    0.47223    0.99013    1.000
    Si2192   Si       0.33024    0.45444    0.99206    1.000
    N2193    N        0.40998    0.43351    0.95712    1.000
    Si2194   Si       0.36845    0.43712    0.94640    1.000
    N2195    N        0.45348    0.49196    0.97111    1.000
    Si2196   Si       0.44811    0.45584    0.94803    1.000
    Si2197   Si       0.41550    0.40892    0.99283    1.000
    N2198    N        0.47583    0.42965    0.96822    1.000
    Si2199   Si       0.33105    0.56525    0.02237    1.000
    N2200    N        0.25710    0.52081    0.02327    1.000
    Si2201   Si       0.25468    0.62328    0.04570    1.000
    N2202    N        0.25711    0.61612    0.00293    1.000
    N2203    N        0.32921    0.60574    0.00127    1.000
    N2204    N        0.37101    0.56058    0.03696    1.000
    Si2205   Si       0.40343    0.53362    0.02326    1.000
    N2206    N        0.44521    0.54468    0.00910    1.000
    Si2207   Si       0.46050    0.58412    0.00740    1.000
    Si2208   Si       0.47584    0.51169    0.00238    1.000
    N2209    N        0.43246    0.61540    0.99568    1.000
    N2210    N        0.24699    0.71554    0.01646    1.000
    Si2211   Si       0.28446    0.73430    0.02926    1.000
    N2212    N        0.31157    0.70790    0.05089    1.000
    Si2213   Si       0.39289    0.70741    0.99654    1.000
    N2214    N        0.38001    0.66629    0.00289    1.000
    Si2215   Si       0.41002    0.64016    0.02501    1.000
    Si2216   Si       0.45721    0.73789    0.02518    1.000
    Si2217   Si       0.47559    0.67101    0.04751    1.000
    N2218    N        0.37364    0.73390    0.02688    1.000
    N2219    N        0.48728    0.66795    0.00811    1.000
    N2220    N        0.34182    0.59593    0.09230    1.000
    Si2221   Si       0.30988    0.56694    0.09816    1.000
    Si2222   Si       0.27493    0.52179    0.06098    1.000
    N2223    N        0.24380    0.53265    0.08972    1.000
    N2224    N        0.30503    0.55390    0.05714    1.000
    Si2225   Si       0.23716    0.57544    0.10258    1.000
    Si2226   Si       0.41626    0.51392    0.08852    1.000
    N2227    N        0.40553    0.55657    0.09598    1.000
    Si2228   Si       0.37988    0.58352    0.07241    1.000
    N2229    N        0.47340    0.59085    0.09681    1.000
    N2230    N        0.45991    0.51518    0.08186    1.000
    Si2231   Si       0.47523    0.54833    0.10738    1.000
    N2232    N        0.39046    0.62237    0.06014    1.000
    N2233    N        0.26721    0.66212    0.05915    1.000
    Si2234   Si       0.29907    0.74971    0.09399    1.000
    N2235    N        0.34212    0.74550    0.09517    1.000
    N2236    N        0.27431    0.71527    0.10558    1.000
    Si2237   Si       0.29577    0.68385    0.08493    1.000
    Si2238   Si       0.35400    0.71791    0.06138    1.000
    Si2239   Si       0.40668    0.65593    0.08702    1.000
    N2240    N        0.47359    0.71392    0.05716    1.000
    N2241    N        0.38350    0.69626    0.08754    1.000
    N2242    N        0.43425    0.66196    0.05404    1.000
    N2243    N        0.32840    0.60416    0.15346    1.000
    Si2244   Si       0.28443    0.60626    0.15343    1.000
    Si2245   Si       0.34381    0.62793    0.12083    1.000
    N2246    N        0.27590    0.59180    0.11445    1.000
    N2247    N        0.31148    0.53003    0.12328    1.000
    Si2248   Si       0.41248    0.56732    0.13892    1.000
    N2249    N        0.45229    0.54954    0.14440    1.000
    N2250    N        0.42783    0.60574    0.16014    1.000
    Si2251   Si       0.46381    0.61332    0.13226    1.000
    N2252    N        0.38126    0.55333    0.16395    1.000
    Si2253   Si       0.45995    0.51673    0.17245    1.000
    Si2254   Si       0.31877    0.74280    0.16182    1.000
    N2255    N        0.35068    0.71234    0.15232    1.000
    Si2256   Si       0.30844    0.67569    0.15980    1.000
    N2257    N        0.27352    0.64738    0.16388    1.000
    N2258    N        0.31710    0.66314    0.11724    1.000
    N2259    N        0.44675    0.65529    0.12386    1.000
    N2260    N        0.38420    0.63936    0.12279    1.000
    Si2261   Si       0.48610    0.67330    0.13685    1.000
    Si2262   Si       0.41271    0.64758    0.15265    1.000
    Si2263   Si       0.37616    0.72360    0.11940    1.000
    N2264    N        0.31804    0.55602    0.20136    1.000
    Si2265   Si       0.27794    0.54331    0.19422    1.000
    Si2266   Si       0.34978    0.57803    0.18047    1.000
    N2267    N        0.25977    0.57892    0.17633    1.000
    Si2268   Si       0.38817    0.51418    0.18434    1.000
    N2269    N        0.37217    0.60579    0.20457    1.000
    Si2270   Si       0.41645    0.59644    0.20507    1.000
    N2271    N        0.43196    0.55968    0.22004    1.000
    N2272    N        0.37421    0.52221    0.22442    1.000
    N2273    N        0.49050    0.52960    0.20269    1.000
    Si2274   Si       0.34932    0.63829    0.22268    1.000
    Si2275   Si       0.26026    0.71039    0.20694    1.000
    N2276    N        0.33879    0.66182    0.18754    1.000
    N2277    N        0.29081    0.71245    0.17695    1.000
    N2278    N        0.36924    0.73052    0.21336    1.000
    N2279    N        0.43890    0.73730    0.17922    1.000
    N2280    N        0.40769    0.67950    0.18018    1.000
    N2281    N        0.48203    0.68563    0.17826    1.000
    Si2282   Si       0.44516    0.69935    0.19619    1.000
    Si2283   Si       0.36829    0.69475    0.18909    1.000
    N2284    N        0.34457    0.56289    0.27064    1.000
    Si2285   Si       0.31303    0.59176    0.27821    1.000
    N2286    N        0.24915    0.62470    0.24325    1.000
    N2287    N        0.31968    0.62467    0.25238    1.000
    Si2288   Si       0.33540    0.53685    0.23787    1.000
    Si2289   Si       0.24549    0.58178    0.25247    1.000
    N2290    N        0.27564    0.57135    0.28094    1.000
    Si2291   Si       0.27274    0.51771    0.26503    1.000
    N2292    N        0.25369    0.54393    0.23002    1.000
    Si2293   Si       0.46403    0.61661    0.26296    1.000
    N2294    N        0.47339    0.53597    0.27385    1.000
    Si2295   Si       0.41052    0.52959    0.24652    1.000
    N2296    N        0.40665    0.54703    0.28525    1.000
    N2297    N        0.42964    0.62349    0.23849    1.000
    Si2298   Si       0.47337    0.55316    0.23333    1.000
    Si2299   Si       0.28240    0.64834    0.25765    1.000
    Si2300   Si       0.27993    0.72222    0.26492    1.000
    N2301    N        0.32320    0.73067    0.26137    1.000
    N2302    N        0.27704    0.68675    0.23965    1.000
    Si2303   Si       0.36137    0.71160    0.25178    1.000
    N2304    N        0.25415    0.74480    0.23291    1.000
    N2305    N        0.39116    0.71969    0.28179    1.000
    Si2306   Si       0.47799    0.70978    0.25756    1.000
    N2307    N        0.37374    0.67123    0.24085    1.000
    N2308    N        0.44628    0.68894    0.23819    1.000
    Si2309   Si       0.41463    0.66316    0.25095    1.000
    Si2310   Si       0.42067    0.75252    0.27910    1.000
    N2311    N        0.46287    0.75025    0.26258    1.000
    Si2312   Si       0.26791    0.55038    0.31991    1.000
    N2313    N        0.34945    0.53567    0.33083    1.000
    N2314    N        0.32536    0.60165    0.32009    1.000
    N2315    N        0.29116    0.51418    0.30587    1.000
    Si2316   Si       0.37236    0.56293    0.30454    1.000
    Si2317   Si       0.44440    0.55385    0.30192    1.000
    N2318    N        0.39169    0.59218    0.33179    1.000
    Si2319   Si       0.41974    0.62234    0.31865    1.000
    N2320    N        0.44325    0.53318    0.33965    1.000
    N2321    N        0.45649    0.59774    0.30074    1.000
    Si2322   Si       0.47874    0.61714    0.33618    1.000
    N2323    N        0.34917    0.67046    0.32270    1.000
    Si2324   Si       0.31442    0.64303    0.32650    1.000
    N2325    N        0.27978    0.65305    0.30238    1.000
    Si2326   Si       0.24455    0.67785    0.31132    1.000
    N2327    N        0.25557    0.71991    0.30122    1.000
    N2328    N        0.47529    0.76071    0.34075    1.000
    N2329    N        0.41301    0.70285    0.34583    1.000
    N2330    N        0.41204    0.65624    0.29390    1.000
    Si2331   Si       0.38756    0.68840    0.31341    1.000
    Si2332   Si       0.26584    0.57111    0.39356    1.000
    N2333    N        0.34797    0.57829    0.38669    1.000
    N2334    N        0.25533    0.61221    0.38517    1.000
    N2335    N        0.28824    0.55986    0.35573    1.000
    Si2336   Si       0.32924    0.56840    0.34900    1.000
    Si2337   Si       0.45201    0.55610    0.37534    1.000
    Si2338   Si       0.38567    0.59701    0.37381    1.000
    N2339    N        0.41969    0.57878    0.39447    1.000
    Si2340   Si       0.33731    0.75533    0.36123    1.000
    N2341    N        0.34302    0.71313    0.37854    1.000
    N2342    N        0.30895    0.65156    0.36951    1.000
    Si2343   Si       0.34907    0.67119    0.36783    1.000
    Si2344   Si       0.28321    0.64057    0.40208    1.000
    N2345    N        0.37706    0.64236    0.38047    1.000
    N2346    N        0.43160    0.75142    0.39639    1.000
    Si2347   Si       0.44010    0.67473    0.36973    1.000
    Si2348   Si       0.41709    0.74611    0.35385    1.000
    Si2349   Si       0.47045    0.73523    0.40602    1.000
    N2350    N        0.47357    0.70246    0.37454    1.000
    N2351    N        0.44438    0.63804    0.34927    1.000
    Si2352   Si       0.32825    0.57952    0.42634    1.000
    N2353    N        0.30901    0.61878    0.43176    1.000
    N2354    N        0.29493    0.55270    0.41974    1.000
    N2355    N        0.35886    0.57136    0.45447    1.000
    Si2356   Si       0.29843    0.51057    0.43293    1.000
    N2357    N        0.32732    0.51071    0.46517    1.000
    N2358    N        0.46957    0.59526    0.43660    1.000
    Si2359   Si       0.42752    0.58641    0.43687    1.000
    N2360    N        0.40069    0.61957    0.44617    1.000
    Si2361   Si       0.48792    0.55510    0.43506    1.000
    N2362    N        0.46808    0.53123    0.40651    1.000
    Si2363   Si       0.34314    0.71346    0.42154    1.000
    N2364    N        0.25779    0.67003    0.42438    1.000
    Si2365   Si       0.27671    0.69519    0.45210    1.000
    N2366    N        0.30290    0.72267    0.43260    1.000
    N2367    N        0.35301    0.67355    0.43321    1.000
    Si2368   Si       0.32839    0.64655    0.45931    1.000
    Si2369   Si       0.38963    0.65315    0.42194    1.000
    N2370    N        0.37207    0.74186    0.43597    1.000
    N2371    N        0.42725    0.67252    0.41126    1.000
    Si2372   Si       0.44625    0.68464    0.44577    1.000
    N2373    N        0.47063    0.72249    0.44863    1.000
    Si2374   Si       0.34752    0.54248    0.48804    1.000
    N2375    N        0.31111    0.56185    0.50642    1.000
    Si2376   Si       0.27131    0.57971    0.51691    1.000
    N2377    N        0.34649    0.62462    0.49043    1.000
    N2378    N        0.24577    0.58108    0.48410    1.000
    N2379    N        0.37421    0.51252    0.50967    1.000
    Si2380   Si       0.38287    0.60152    0.48149    1.000
    Si2381   Si       0.44793    0.53171    0.49203    1.000
    N2382    N        0.37236    0.57658    0.51836    1.000
    N2383    N        0.40934    0.62920    0.51106    1.000
    N2384    N        0.42335    0.56312    0.47428    1.000
    N2385    N        0.29737    0.66866    0.47894    1.000
    N2386    N        0.35165    0.73503    0.49841    1.000
    N2387    N        0.25322    0.72353    0.47633    1.000
    Si2388   Si       0.29367    0.66112    0.52064    1.000
    N2389    N        0.47774    0.66259    0.46587    1.000
    N2390    N        0.41204    0.69352    0.47237    1.000
    Si2391   Si       0.41837    0.67301    0.51023    1.000
    N2392    N        0.47696    0.74019    0.50960    1.000
    Si2393   Si       0.45717    0.75596    0.47178    1.000
    Si2394   Si       0.38857    0.73203    0.47638    1.000
    N2395    N        0.25545    0.55286    0.55005    1.000
    N2396    N        0.32241    0.57038    0.56877    1.000
    N2397    N        0.35499    0.62161    0.55991    1.000
    N2398    N        0.29163    0.61687    0.52842    1.000
    Si2399   Si       0.33247    0.59485    0.52985    1.000
    Si2400   Si       0.28370    0.55690    0.58469    1.000
    N2401    N        0.36827    0.51421    0.57234    1.000
    Si2402   Si       0.45896    0.51566    0.56660    1.000
    Si2403   Si       0.39445    0.60808    0.54520    1.000
    Si2404   Si       0.39091    0.54146    0.54173    1.000
    N2405    N        0.43495    0.53045    0.53396    1.000
    N2406    N        0.39647    0.57571    0.57476    1.000
    N2407    N        0.49021    0.61301    0.54925    1.000
    Si2408   Si       0.33857    0.65689    0.57763    1.000
    Si2409   Si       0.35187    0.71508    0.53878    1.000
    N2410    N        0.33976    0.74574    0.56999    1.000
    N2411    N        0.32344    0.68249    0.54429    1.000
    N2412    N        0.25599    0.67693    0.53547    1.000
    Si2413   Si       0.26667    0.68157    0.57816    1.000
    N2414    N        0.45984    0.68166    0.52478    1.000
    Si2415   Si       0.47058    0.65138    0.55251    1.000
    Si2416   Si       0.40877    0.68207    0.57692    1.000
    N2417    N        0.43402    0.64558    0.57557    1.000
    Si2418   Si       0.47474    0.71506    0.55227    1.000
    N2419    N        0.38948    0.69185    0.53769    1.000
    N2420    N        0.43773    0.71684    0.57725    1.000
    N2421    N        0.26677    0.59106    0.60359    1.000
    N2422    N        0.33858    0.61382    0.62323    1.000
    N2423    N        0.29886    0.52528    0.61145    1.000
    Si2424   Si       0.29443    0.62097    0.62039    1.000
    Si2425   Si       0.34206    0.51527    0.60682    1.000
    Si2426   Si       0.35652    0.58608    0.59183    1.000
    N2427    N        0.36296    0.55258    0.62360    1.000
    N2428    N        0.43494    0.52258    0.60389    1.000
    N2429    N        0.45566    0.58278    0.60780    1.000
    Si2430   Si       0.41018    0.56210    0.61507    1.000
    Si2431   Si       0.43925    0.62191    0.61311    1.000
    N2432    N        0.40311    0.60863    0.63119    1.000
    Si2433   Si       0.46470    0.54370    0.63408    1.000
    Si2434   Si       0.31065    0.74252    0.60363    1.000
    Si2435   Si       0.24937    0.71095    0.62944    1.000
    N2436    N        0.27667    0.72070    0.59397    1.000
    N2437    N        0.29819    0.65450    0.59274    1.000
    N2438    N        0.32710    0.71814    0.63629    1.000
    Si2439   Si       0.36699    0.69808    0.63535    1.000
    Si2440   Si       0.42646    0.74386    0.60995    1.000
    N2441    N        0.37395    0.67562    0.59836    1.000
    N2442    N        0.39906    0.72408    0.63827    1.000
    N2443    N        0.30172    0.56432    0.66558    1.000
    Si2444   Si       0.34652    0.56226    0.66322    1.000
    Si2445   Si       0.28377    0.52542    0.65466    1.000
    Si2446   Si       0.28632    0.59485    0.68935    1.000
    N2447    N        0.27908    0.62591    0.65839    1.000
    N2448    N        0.35846    0.52644    0.68194    1.000
    N2449    N        0.36331    0.59841    0.68756    1.000
    N2450    N        0.24204    0.51432    0.65887    1.000
    N2451    N        0.24441    0.59318    0.69936    1.000
    Si2452   Si       0.37080    0.62495    0.65230    1.000
    N2453    N        0.42268    0.54771    0.65702    1.000
    Si2454   Si       0.40303    0.51818    0.68143    1.000
    Si2455   Si       0.30805    0.71998    0.67562    1.000
    N2456    N        0.26817    0.70372    0.66835    1.000
    N2457    N        0.36716    0.66580    0.66557    1.000
    Si2458   Si       0.49188    0.74769    0.64903    1.000
    N2459    N        0.44946    0.75699    0.64428    1.000
    Si2460   Si       0.48070    0.67543    0.66046    1.000
    N2461    N        0.44892    0.69542    0.68127    1.000
    Si2462   Si       0.42422    0.72942    0.67313    1.000
    N2463    N        0.38792    0.71654    0.70076    1.000
    N2464    N        0.47215    0.63789    0.63999    1.000
    N2465    N        0.30730    0.61055    0.72244    1.000
    Si2466   Si       0.34874    0.61293    0.72528    1.000
    Si2467   Si       0.44655    0.52690    0.74030    1.000
    Si2468   Si       0.45781    0.60181    0.74839    1.000
    N2469    N        0.43225    0.56824    0.74558    1.000
    N2470    N        0.48118    0.52001    0.71758    1.000
    N2471    N        0.40999    0.50762    0.72334    1.000
    Si2472   Si       0.29973    0.71343    0.74402    1.000
    N2473    N        0.25611    0.71056    0.73410    1.000
    N2474    N        0.32398    0.69983    0.71036    1.000
    Si2475   Si       0.36272    0.68222    0.70645    1.000
    N2476    N        0.31461    0.75066    0.75979    1.000
    N2477    N        0.46069    0.63692    0.72308    1.000
    Si2478   Si       0.47321    0.75202    0.72368    1.000
    N2479    N        0.47100    0.71683    0.74697    1.000
    Si2480   Si       0.45693    0.68073    0.72318    1.000
    N2481    N        0.36935    0.65080    0.73513    1.000
    N2482    N        0.42415    0.68075    0.75338    1.000
    Si2483   Si       0.39578    0.74277    0.73213    1.000
    N2484    N        0.43171    0.75826    0.70842    1.000
    N2485    N        0.33430    0.54320    0.79263    1.000
    Si2486   Si       0.26168    0.56976    0.79309    1.000
    Si2487   Si       0.33487    0.58725    0.79267    1.000
    N2488    N        0.29529    0.59902    0.80152    1.000
    N2489    N        0.27018    0.53298    0.77230    1.000
    Si2490   Si       0.31053    0.51482    0.77062    1.000
    N2491    N        0.36460    0.59229    0.76060    1.000
    Si2492   Si       0.42170    0.51501    0.81044    1.000
    Si2493   Si       0.40356    0.58032    0.77708    1.000
    N2494    N        0.42119    0.61966    0.78391    1.000
    N2495    N        0.40428    0.55477    0.81199    1.000
    N2496    N        0.48318    0.61134    0.78415    1.000
    N2497    N        0.45209    0.51354    0.77947    1.000
    Si2498   Si       0.45394    0.63184    0.81158    1.000
    Si2499   Si       0.33693    0.68788    0.81161    1.000
    N2500    N        0.30942    0.68824    0.77730    1.000
    Si2501   Si       0.31869    0.76013    0.80280    1.000
    N2502    N        0.24506    0.64743    0.81900    1.000
    N2503    N        0.45119    0.74239    0.81073    1.000
    Si2504   Si       0.39537    0.65391    0.77003    1.000
    N2505    N        0.40388    0.74176    0.77362    1.000
    N2506    N        0.44146    0.67501    0.81542    1.000
    N2507    N        0.37509    0.67171    0.80400    1.000
    Si2508   Si       0.43913    0.71112    0.78137    1.000
    N2509    N        0.26898    0.61151    0.86882    1.000
    N2510    N        0.35383    0.53034    0.85646    1.000
    N2511    N        0.24650    0.55833    0.83224    1.000
    Si2512   Si       0.28217    0.62896    0.83054    1.000
    N2513    N        0.35757    0.59675    0.82968    1.000
    Si2514   Si       0.34826    0.63130    0.85356    1.000
    N2515    N        0.45177    0.61076    0.85038    1.000
    Si2516   Si       0.38007    0.56304    0.84628    1.000
    N2517    N        0.25994    0.70957    0.86275    1.000
    N2518    N        0.31861    0.65647    0.83632    1.000
    N2519    N        0.33979    0.73037    0.82720    1.000
    Si2520   Si       0.24856    0.74335    0.83652    1.000
    Si2521   Si       0.36792    0.74496    0.85512    1.000
    Si2522   Si       0.48068    0.68659    0.84149    1.000
    N2523    N        0.39910    0.71282    0.85870    1.000
    Si2524   Si       0.40283    0.67595    0.83806    1.000
    N2525    N        0.46346    0.74778    0.87572    1.000
    N2526    N        0.38888    0.64620    0.86934    1.000
    Si2527   Si       0.48363    0.75277    0.83622    1.000
    N2528    N        0.46180    0.68210    0.87833    1.000
    Si2529   Si       0.29191    0.62307    0.90391    1.000
    N2530    N        0.28608    0.54094    0.89425    1.000
    N2531    N        0.33517    0.62264    0.89389    1.000
    Si2532   Si       0.32983    0.53007    0.89303    1.000
    Si2533   Si       0.26405    0.56088    0.92703    1.000
    N2534    N        0.35712    0.53923    0.92537    1.000
    N2535    N        0.42315    0.51617    0.91767    1.000
    Si2536   Si       0.39644    0.55007    0.91601    1.000
    N2537    N        0.43412    0.62925    0.91829    1.000
    N2538    N        0.39807    0.57747    0.88272    1.000
    Si2539   Si       0.42050    0.61622    0.87992    1.000
    N2540    N        0.28136    0.66493    0.91092    1.000
    Si2541   Si       0.26225    0.70424    0.90681    1.000
    N2542    N        0.35205    0.68445    0.91522    1.000
    N2543    N        0.29179    0.72091    0.93298    1.000
    N2544    N        0.35882    0.75426    0.89769    1.000
    Si2545   Si       0.31294    0.68383    0.93631    1.000
    Si2546   Si       0.46765    0.65438    0.91079    1.000
    Si2547   Si       0.43562    0.71669    0.88365    1.000
    Si2548   Si       0.37378    0.71987    0.92256    1.000
    N2549    N        0.41780    0.71431    0.92222    1.000
    Si2550   Si       0.36884    0.64516    0.91185    1.000
    N2551    N        0.26222    0.53223    0.95819    1.000
    Si2552   Si       0.29108    0.61857    0.97786    1.000
    Si2553   Si       0.35337    0.51710    0.96518    1.000
    Si2554   Si       0.28482    0.51662    0.99049    1.000
    N2555    N        0.32426    0.53225    0.99404    1.000
    N2556    N        0.28241    0.59918    0.93849    1.000
    N2557    N        0.39340    0.51982    0.98376    1.000
    Si2558   Si       0.42936    0.52708    0.96146    1.000
    Si2559   Si       0.41756    0.61066    0.95641    1.000
    N2560    N        0.42089    0.56898    0.94931    1.000
    N2561    N        0.37746    0.62669    0.95078    1.000
    Si2562   Si       0.35136    0.63736    0.98254    1.000
    N2563    N        0.31356    0.65703    0.96981    1.000
    N2564    N        0.30514    0.75050    0.99337    1.000
    Si2565   Si       0.28294    0.75652    0.95542    1.000
    Si2566   Si       0.34720    0.75187    0.99292    1.000
    N2567    N        0.47331    0.75151    0.94193    1.000
    N2568    N        0.47713    0.68114    0.94303    1.000
    N2569    N        0.36795    0.72721    0.96573    1.000
    N2570    N        0.43323    0.71892    0.99213    1.000
    Si2571   Si       0.45061    0.71537    0.95245    1.000
    N2572    N        0.29584    0.86044    0.04649    1.000
    Si2573   Si       0.27160    0.84848    0.01410    1.000
    Si2574   Si       0.33745    0.87586    0.04392    1.000
    N2575    N        0.35691    0.85833    0.00939    1.000
    N2576    N        0.36087    0.79049    0.00226    1.000
    N2577    N        0.24210    0.82277    0.03261    1.000
    Si2578   Si       0.38823    0.77734    0.03560    1.000
    N2579    N        0.41761    0.83885    0.03846    1.000
    Si2580   Si       0.45004    0.81117    0.02872    1.000
    N2581    N        0.43074    0.77209    0.03698    1.000
    Si2582   Si       0.39914    0.86535    0.00958    1.000
    N2583    N        0.48650    0.81826    0.04929    1.000
    N2584    N        0.24993    0.88670    0.00057    1.000
    N2585    N        0.29654    0.96628    0.01427    1.000
    N2586    N        0.33818    0.91777    0.04214    1.000
    Si2587   Si       0.28482    0.98183    0.05626    1.000
    Si2588   Si       0.32665    0.93508    0.00423    1.000
    N2589    N        0.48140    0.91146    0.03784    1.000
    Si2590   Si       0.44415    0.93203    0.03408    1.000
    N2591    N        0.41752    0.90307    0.01608    1.000
    N2592    N        0.38676    0.97357    0.04468    1.000
    Si2593   Si       0.39739    0.97299    0.00112    1.000
    Si2594   Si       0.27601    0.86543    0.08428    1.000
    N2595    N        0.26475    0.82529    0.09902    1.000
    Si2596   Si       0.25203    0.79878    0.06746    1.000
    Si2597   Si       0.36167    0.78631    0.10927    1.000
    N2598    N        0.27796    0.76600    0.05998    1.000
    N2599    N        0.36169    0.86435    0.07934    1.000
    N2600    N        0.37236    0.79937    0.07063    1.000
    Si2601   Si       0.39340    0.83628    0.07288    1.000
    N2602    N        0.42003    0.83565    0.10593    1.000
    N2603    N        0.30419    0.88078    0.11454    1.000
    N2604    N        0.32298    0.97873    0.07775    1.000
    N2605    N        0.25802    0.96434    0.08695    1.000
    Si2606   Si       0.35560    0.94955    0.06449    1.000
    N2607    N        0.24360    0.89133    0.07181    1.000
    Si2608   Si       0.33471    0.97335    0.11976    1.000
    Si2609   Si       0.41526    0.98637    0.07344    1.000
    N2610    N        0.36343    0.94247    0.10588    1.000
    Si2611   Si       0.45374    0.93540    0.11016    1.000
    N2612    N        0.40126    0.00115    0.11352    1.000
    N2613    N        0.43574    0.94804    0.07255    1.000
    Si2614   Si       0.26707    0.80425    0.13636    1.000
    N2615    N        0.34720    0.82069    0.13068    1.000
    N2616    N        0.29336    0.76916    0.13359    1.000
    N2617    N        0.28969    0.82509    0.16893    1.000
    Si2618   Si       0.33093    0.81497    0.16989    1.000
    Si2619   Si       0.34374    0.86372    0.12023    1.000
    N2620    N        0.39430    0.75979    0.12526    1.000
    Si2621   Si       0.41952    0.77003    0.15866    1.000
    N2622    N        0.45486    0.78906    0.14356    1.000
    Si2623   Si       0.45075    0.83104    0.13261    1.000
    N2624    N        0.44123    0.84964    0.17057    1.000
    N2625    N        0.48615    0.84811    0.11442    1.000
    N2626    N        0.24751    0.91421    0.13413    1.000
    N2627    N        0.30029    0.95615    0.13770    1.000
    Si2628   Si       0.29031    0.91417    0.13994    1.000
    Si2629   Si       0.26556    0.98182    0.12604    1.000
    N2630    N        0.36271    0.88958    0.15035    1.000
    Si2631   Si       0.38738    0.92232    0.13580    1.000
    N2632    N        0.39231    0.95417    0.16397    1.000
    Si2633   Si       0.41728    0.98756    0.15203    1.000
    N2634    N        0.42778    0.90782    0.13135    1.000
    N2635    N        0.45574    0.97087    0.13638    1.000
    Si2636   Si       0.44681    0.89212    0.16744    1.000
    N2637    N        0.34309    0.84589    0.19770    1.000
    Si2638   Si       0.27934    0.86043    0.19023    1.000
    N2639    N        0.33592    0.77501    0.18437    1.000
    N2640    N        0.28794    0.85774    0.23264    1.000
    Si2641   Si       0.36957    0.77434    0.21552    1.000
    N2642    N        0.46563    0.79953    0.21330    1.000
    Si2643   Si       0.43041    0.82234    0.20407    1.000
    N2644    N        0.39937    0.79631    0.18918    1.000
    Si2645   Si       0.48311    0.78489    0.17726    1.000
    Si2646   Si       0.34351    0.88760    0.18869    1.000
    N2647    N        0.25505    0.99439    0.20905    1.000
    N2648    N        0.35800    0.91682    0.21607    1.000
    N2649    N        0.30103    0.89558    0.17865    1.000
    N2650    N        0.31178    0.98333    0.22750    1.000
    N2651    N        0.46182    0.99160    0.22847    1.000
    N2652    N        0.38917    0.97280    0.22937    1.000
    Si2653   Si       0.41999    0.00307    0.22384    1.000
    Si2654   Si       0.39488    0.93724    0.20415    1.000
    N2655    N        0.42569    0.90732    0.20219    1.000
    N2656    N        0.34700    0.86391    0.26625    1.000
    N2657    N        0.28514    0.78786    0.27451    1.000
    Si2658   Si       0.32586    0.77162    0.27637    1.000
    N2659    N        0.34379    0.79912    0.24741    1.000
    Si2660   Si       0.24799    0.78171    0.25288    1.000
    Si2661   Si       0.24928    0.85180    0.24935    1.000
    Si2662   Si       0.32702    0.83953    0.23722    1.000
    N2663    N        0.24578    0.84203    0.29189    1.000
    Si2664   Si       0.38568    0.81681    0.26163    1.000
    N2665    N        0.40268    0.77938    0.25022    1.000
    Si2666   Si       0.48494    0.78730    0.25094    1.000
    N2667    N        0.41372    0.84344    0.23754    1.000
    Si2668   Si       0.36137    0.90519    0.25964    1.000
    Si2669   Si       0.34764    0.96229    0.23679    1.000
    Si2670   Si       0.27155    0.97046    0.24267    1.000
    N2671    N        0.25278    0.93464    0.25617    1.000
    N2672    N        0.34304    0.94142    0.27593    1.000
    N2673    N        0.27468    0.98251    0.28513    1.000
    N2674    N        0.47355    0.88393    0.24127    1.000
    N2675    N        0.40441    0.90544    0.26755    1.000
    Si2676   Si       0.42983    0.88375    0.24032    1.000
    Si2677   Si       0.34890    0.85348    0.30708    1.000
    Si2678   Si       0.27658    0.81510    0.30869    1.000
    N2679    N        0.31074    0.84092    0.32174    1.000
    N2680    N        0.25986    0.78636    0.33500    1.000
    N2681    N        0.33565    0.76554    0.31844    1.000
    Si2682   Si       0.38898    0.80247    0.34079    1.000
    N2683    N        0.37567    0.81970    0.30344    1.000
    Si2684   Si       0.45657    0.79756    0.32612    1.000
    N2685    N        0.41927    0.77148    0.31768    1.000
    N2686    N        0.47664    0.81127    0.28585    1.000
    Si2687   Si       0.26060    0.94169    0.29931    1.000
    N2688    N        0.28924    0.91481    0.31700    1.000
    Si2689   Si       0.35027    0.96473    0.31156    1.000
    N2690    N        0.34128    0.00755    0.30125    1.000
    N2691    N        0.45393    0.98417    0.30086    1.000
    Si2692   Si       0.42215    0.98579    0.33057    1.000
    N2693    N        0.48667    0.93417    0.34411    1.000
    N2694    N        0.37462    0.88432    0.32532    1.000
    Si2695   Si       0.40527    0.91413    0.31035    1.000
    Si2696   Si       0.47640    0.89099    0.33913    1.000
    N2697    N        0.39397    0.95432    0.31908    1.000
    N2698    N        0.43483    0.89629    0.33540    1.000
    N2699    N        0.27670    0.83552    0.38173    1.000
    Si2700   Si       0.31519    0.84869    0.36684    1.000
    N2701    N        0.30696    0.77262    0.38740    1.000
    Si2702   Si       0.26766    0.79270    0.37549    1.000
    N2703    N        0.35838    0.83314    0.37151    1.000
    N2704    N        0.38093    0.76850    0.36626    1.000
    N2705    N        0.40548    0.87403    0.39347    1.000
    N2706    N        0.47986    0.87173    0.37644    1.000
    Si2707   Si       0.44829    0.88077    0.40298    1.000
    N2708    N        0.42622    0.82732    0.34748    1.000
    Si2709   Si       0.40594    0.86578    0.35084    1.000
    N2710    N        0.32138    0.88943    0.37951    1.000
    Si2711   Si       0.26580    0.98206    0.39440    1.000
    N2712    N        0.30472    0.00080    0.39578    1.000
    N2713    N        0.27989    0.94191    0.38160    1.000
    Si2714   Si       0.33424    0.96668    0.39412    1.000
    Si2715   Si       0.30688    0.92098    0.35389    1.000
    N2716    N        0.33565    0.95321    0.35051    1.000
    N2717    N        0.43222    0.97383    0.37167    1.000
    Si2718   Si       0.46735    0.94948    0.37944    1.000
    N2719    N        0.36661    0.99498    0.39985    1.000
    Si2720   Si       0.40875    0.98868    0.40567    1.000
    N2721    N        0.34486    0.86319    0.43866    1.000
    Si2722   Si       0.26451    0.87249    0.46444    1.000
    Si2723   Si       0.28667    0.76083    0.42497    1.000
    N2724    N        0.29044    0.77968    0.46379    1.000
    N2725    N        0.24747    0.76947    0.40569    1.000
    N2726    N        0.45316    0.85680    0.43801    1.000
    Si2727   Si       0.43551    0.81816    0.44736    1.000
    N2728    N        0.46981    0.79315    0.45314    1.000
    N2729    N        0.40082    0.80974    0.42358    1.000
    Si2730   Si       0.37570    0.84578    0.40895    1.000
    Si2731   Si       0.39278    0.76862    0.40922    1.000
    N2732    N        0.28286    0.89842    0.43583    1.000
    N2733    N        0.34120    0.93714    0.42581    1.000
    Si2734   Si       0.32421    0.89838    0.42138    1.000
    N2735    N        0.24359    0.96092    0.42839    1.000
    Si2736   Si       0.25619    0.92149    0.41069    1.000
    Si2737   Si       0.36732    0.95244    0.45899    1.000
    N2738    N        0.40573    0.96082    0.43909    1.000
    N2739    N        0.47372    0.97024    0.46045    1.000
    N2740    N        0.45764    0.92296    0.41219    1.000
    Si2741   Si       0.44361    0.94161    0.44928    1.000
    Si2742   Si       0.27769    0.80446    0.49723    1.000
    N2743    N        0.29108    0.84467    0.48261    1.000
    N2744    N        0.34841    0.86588    0.51202    1.000
    Si2745   Si       0.32761    0.77015    0.48708    1.000
    Si2746   Si       0.33537    0.84364    0.47644    1.000
    N2747    N        0.35399    0.80247    0.47690    1.000
    N2748    N        0.23922    0.79332    0.51249    1.000
    N2749    N        0.48291    0.86303    0.49990    1.000
    N2750    N        0.41853    0.83594    0.48460    1.000
    Si2751   Si       0.39435    0.79966    0.49549    1.000
    Si2752   Si       0.44621    0.87033    0.47804    1.000
    N2753    N        0.41568    0.76476    0.48432    1.000
    N2754    N        0.35188    0.98654    0.48088    1.000
    N2755    N        0.25185    0.96855    0.51621    1.000
    Si2756   Si       0.34641    0.90983    0.52136    1.000
    Si2757   Si       0.34230    0.97660    0.52229    1.000
    N2758    N        0.31786    0.94172    0.52541    1.000
    N2759    N        0.37456    0.92804    0.49510    1.000
    Si2760   Si       0.41583    0.93028    0.51129    1.000
    N2761    N        0.43073    0.96941    0.51493    1.000
    Si2762   Si       0.47213    0.97982    0.50230    1.000
    N2763    N        0.43934    0.91251    0.48019    1.000
    Si2764   Si       0.34265    0.78652    0.55263    1.000
    N2765    N        0.34106    0.82355    0.57792    1.000
    Si2766   Si       0.36264    0.85755    0.55718    1.000
    N2767    N        0.31013    0.78876    0.52210    1.000
    N2768    N        0.45394    0.80376    0.54512    1.000
    Si2769   Si       0.41420    0.80783    0.56207    1.000
    N2770    N        0.40521    0.85053    0.55769    1.000
    N2771    N        0.47331    0.86873    0.56491    1.000
    N2772    N        0.38332    0.79243    0.53604    1.000
    Si2773   Si       0.48049    0.83824    0.53535    1.000
    Si2774   Si       0.48534    0.77510    0.53388    1.000
    Si2775   Si       0.43064    0.88253    0.56965    1.000
    N2776    N        0.27253    0.90447    0.55572    1.000
    Si2777   Si       0.27845    0.94658    0.54256    1.000
    N2778    N        0.35451    0.90124    0.56416    1.000
    Si2779   Si       0.34523    0.00375    0.57842    1.000
    N2780    N        0.31936    0.00594    0.54321    1.000
    N2781    N        0.27514    0.96890    0.58113    1.000
    N2782    N        0.37308    0.97368    0.55643    1.000
    N2783    N        0.41461    0.91799    0.55340    1.000
    Si2784   Si       0.41403    0.99112    0.54915    1.000
    Si2785   Si       0.38029    0.93417    0.57731    1.000
    N2786    N        0.29117    0.78254    0.61103    1.000
    Si2787   Si       0.31083    0.82144    0.61002    1.000
    N2788    N        0.28179    0.85021    0.59684    1.000
    Si2789   Si       0.24943    0.78375    0.62871    1.000
    N2790    N        0.41277    0.78455    0.59906    1.000
    N2791    N        0.42436    0.88082    0.61329    1.000
    N2792    N        0.46067    0.82498    0.64366    1.000
    Si2793   Si       0.42934    0.79673    0.63991    1.000
    N2794    N        0.33677    0.98162    0.61392    1.000
    N2795    N        0.30342    0.91693    0.62403    1.000
    Si2796   Si       0.29776    0.96064    0.61913    1.000
    Si2797   Si       0.27734    0.89279    0.59917    1.000
    N2798    N        0.46463    0.00333    0.64461    1.000
    N2799    N        0.48958    0.88548    0.63829    1.000
    N2800    N        0.38637    0.93712    0.62000    1.000
    N2801    N        0.43274    0.98438    0.59009    1.000
    Si2802   Si       0.42383    0.99357    0.63334    1.000
    Si2803   Si       0.47315    0.99958    0.59829    1.000
    N2804    N        0.25966    0.80620    0.66507    1.000
    Si2805   Si       0.29972    0.80194    0.67893    1.000
    N2806    N        0.32504    0.82441    0.65247    1.000
    N2807    N        0.35982    0.88295    0.65185    1.000
    Si2808   Si       0.36297    0.84263    0.66839    1.000
    N2809    N        0.31058    0.76122    0.68889    1.000
    N2810    N        0.39628    0.81317    0.66497    1.000
    Si2811   Si       0.45122    0.86807    0.64453    1.000
    N2812    N        0.42256    0.88289    0.67453    1.000
    N2813    N        0.34186    0.94618    0.67460    1.000
    Si2814   Si       0.24689    0.96100    0.67479    1.000
    Si2815   Si       0.32550    0.90807    0.66104    1.000
    N2816    N        0.30698    0.90084    0.70019    1.000
    N2817    N        0.27949    0.98072    0.65391    1.000
    N2818    N        0.23957    0.91786    0.67692    1.000
    N2819    N        0.39864    0.98071    0.66678    1.000
    Si2820   Si       0.39726    0.89943    0.64017    1.000
    Si2821   Si       0.36376    0.96528    0.64443    1.000
    N2822    N        0.30874    0.81516    0.72042    1.000
    Si2823   Si       0.28372    0.83989    0.74519    1.000
    Si2824   Si       0.32765    0.77667    0.72820    1.000
    N2825    N        0.25884    0.85855    0.71441    1.000
    N2826    N        0.36729    0.85958    0.70979    1.000
    N2827    N        0.48306    0.78623    0.74989    1.000
    N2828    N        0.37080    0.77771    0.72482    1.000
    N2829    N        0.42961    0.82571    0.72474    1.000
    Si2830   Si       0.41095    0.86400    0.71119    1.000
    Si2831   Si       0.40606    0.79607    0.70456    1.000
    Si2832   Si       0.45517    0.81624    0.75868    1.000
    Si2833   Si       0.33635    0.88541    0.72972    1.000
    Si2834   Si       0.26338    0.89986    0.70849    1.000
    Si2835   Si       0.26073    0.96180    0.75203    1.000
    Si2836   Si       0.33499    0.95519    0.71620    1.000
    N2837    N        0.25748    0.91499    0.75067    1.000
    N2838    N        0.30361    0.96943    0.74490    1.000
    N2839    N        0.35548    0.99664    0.71982    1.000
    N2840    N        0.35616    0.92325    0.74104    1.000
    Si2841   Si       0.33113    0.00151    0.75677    1.000
    N2842    N        0.23997    0.97518    0.71808    1.000
    Si2843   Si       0.39835    0.92358    0.75234    1.000
    N2844    N        0.48419    0.97481    0.71318    1.000
    N2845    N        0.41568    0.96142    0.73974    1.000
    Si2846   Si       0.45297    0.98843    0.74200    1.000
    Si2847   Si       0.39680    0.98931    0.70947    1.000
    N2848    N        0.42079    0.88786    0.74651    1.000
    N2849    N        0.26134    0.82500    0.77827    1.000
    N2850    N        0.33067    0.80309    0.80590    1.000
    Si2851   Si       0.28684    0.81261    0.81078    1.000
    N2852    N        0.31166    0.86925    0.76107    1.000
    Si2853   Si       0.41804    0.77105    0.80438    1.000
    N2854    N        0.42956    0.81026    0.79239    1.000
    N2855    N        0.47949    0.85120    0.77491    1.000
    Si2856   Si       0.26570    0.00591    0.81183    1.000
    Si2857   Si       0.28509    0.89781    0.78122    1.000
    N2858    N        0.34923    0.98230    0.79124    1.000
    N2859    N        0.31445    0.92046    0.80516    1.000
    Si2860   Si       0.34877    0.93781    0.78613    1.000
    N2861    N        0.25124    0.89956    0.81046    1.000
    N2862    N        0.24663    0.96889    0.79385    1.000
    N2863    N        0.46947    0.99005    0.78022    1.000
    Si2864   Si       0.45591    0.88718    0.77104    1.000
    Si2865   Si       0.47341    0.94991    0.80098    1.000
    N2866    N        0.44461    0.88558    0.81583    1.000
    N2867    N        0.38856    0.92268    0.79456    1.000
    N2868    N        0.47311    0.92649    0.76529    1.000
    N2869    N        0.28141    0.84133    0.84351    1.000
    Si2870   Si       0.31276    0.84798    0.87322    1.000
    N2871    N        0.34001    0.81444    0.87271    1.000
    Si2872   Si       0.36274    0.81271    0.83376    1.000
    Si2873   Si       0.24537    0.86585    0.84089    1.000
    N2874    N        0.33998    0.88041    0.86353    1.000
    N2875    N        0.27754    0.76902    0.81825    1.000
    N2876    N        0.45087    0.83037    0.85710    1.000
    N2877    N        0.38764    0.77875    0.83502    1.000
    N2878    N        0.38990    0.84815    0.83332    1.000
    Si2879   Si       0.38216    0.87118    0.86793    1.000
    Si2880   Si       0.43036    0.84327    0.82102    1.000
    N2881    N        0.28655    0.91852    0.86322    1.000
    N2882    N        0.28797    0.97655    0.83736    1.000
    N2883    N        0.34637    0.95872    0.85532    1.000
    Si2884   Si       0.32858    0.99282    0.82837    1.000
    Si2885   Si       0.26429    0.93989    0.82782    1.000
    Si2886   Si       0.32832    0.91903    0.84937    1.000
    Si2887   Si       0.25983    0.98612    0.87430    1.000
    N2888    N        0.44011    0.95463    0.82913    1.000
    Si2889   Si       0.41474    0.91744    0.82639    1.000
    N2890    N        0.40600    0.90909    0.86776    1.000
    Si2891   Si       0.48086    0.89277    0.84386    1.000
    Si2892   Si       0.45187    0.98560    0.85841    1.000
    N2893    N        0.30255    0.86073    0.91579    1.000
    Si2894   Si       0.34302    0.79369    0.91112    1.000
    N2895    N        0.30354    0.78710    0.93094    1.000
    N2896    N        0.24584    0.82988    0.93620    1.000
    N2897    N        0.40511    0.85460    0.90133    1.000
    Si2898   Si       0.44791    0.85145    0.89419    1.000
    N2899    N        0.47347    0.84412    0.92780    1.000
    Si2900   Si       0.38638    0.85397    0.94059    1.000
    Si2901   Si       0.25288    0.91887    0.88789    1.000
    Si2902   Si       0.33674    0.97404    0.89499    1.000
    N2903    N        0.29564    0.99280    0.90041    1.000
    N2904    N        0.33427    0.93814    0.91854    1.000
    N2905    N        0.26129    0.90780    0.93108    1.000
    Si2906   Si       0.31571    0.89845    0.93593    1.000
    N2907    N        0.41499    0.92611    0.93703    1.000
    N2908    N        0.46062    0.96057    0.89382    1.000
    Si2909   Si       0.43755    0.92340    0.89753    1.000
    N2910    N        0.46726    0.89126    0.88515    1.000
    N2911    N        0.36764    0.00131    0.91149    1.000
    N2912    N        0.29693    0.83113    0.98294    1.000
    Si2913   Si       0.34137    0.82440    0.98477    1.000
    N2914    N        0.36033    0.81969    0.94379    1.000
    N2915    N        0.24010    0.76521    0.96326    1.000
    Si2916   Si       0.28891    0.82686    0.93958    1.000
    Si2917   Si       0.46612    0.85182    0.97054    1.000
    N2918    N        0.41804    0.86059    0.96878    1.000
    N2919    N        0.45938    0.81212    0.98602    1.000
    Si2920   Si       0.48409    0.78035    0.97127    1.000
    Si2921   Si       0.26234    0.92053    0.97482    1.000
    N2922    N        0.30560    0.91212    0.97546    1.000
    N2923    N        0.35862    0.88755    0.94356    1.000
    Si2924   Si       0.29472    0.00369    0.99483    1.000
    Si2925   Si       0.47274    0.98295    0.99490    1.000
    Si2926   Si       0.43226    0.91412    0.97572    1.000
    Si2927   Si       0.37062    0.93027    0.94314    1.000
    N2928    N        0.36493    0.94907    0.98148    1.000
    N2929    N        0.47165    0.90003    0.96761    1.000
    N2930    N        0.43679    0.95662    0.99678    1.000
    Si2931   Si       0.60364    0.06930    0.01807    1.000
    N2932    N        0.50496    0.11432    0.03537    1.000
    N2933    N        0.56450    0.07947    0.03620    1.000
    N2934    N        0.50566    0.04597    0.04652    1.000
    Si2935   Si       0.49141    0.07506    0.01699    1.000
    Si2936   Si       0.54719    0.11757    0.05085    1.000
    N2937    N        0.56972    0.00987    0.04940    1.000
    N2938    N        0.70407    0.03697    0.04249    1.000
    N2939    N        0.63688    0.06612    0.04639    1.000
    N2940    N        0.65610    0.12833    0.04002    1.000
    Si2941   Si       0.71548    0.04930    0.99993    1.000
    Si2942   Si       0.65679    0.10960    0.99882    1.000
    Si2943   Si       0.66115    0.03176    0.05416    1.000
    N2944    N        0.56553    0.25887    0.00857    1.000
    N2945    N        0.55759    0.15875    0.04065    1.000
    Si2946   Si       0.55000    0.25240    0.05035    1.000
    N2947    N        0.52531    0.21690    0.05571    1.000
    N2948    N        0.70555    0.16911    0.02806    1.000
    Si2949   Si       0.73637    0.22243    0.00144    1.000
    N2950    N        0.63329    0.23146    0.01391    1.000
    Si2951   Si       0.67066    0.25389    0.00125    1.000
    N2952    N        0.70595    0.24275    0.02323    1.000
    N2953    N        0.53430    0.11295    0.09161    1.000
    N2954    N        0.55763    0.04608    0.10068    1.000
    N2955    N        0.60218    0.12193    0.08327    1.000
    Si2956   Si       0.54681    0.04853    0.05948    1.000
    Si2957   Si       0.63866    0.10370    0.07020    1.000
    N2958    N        0.66835    0.02658    0.09772    1.000
    N2959    N        0.66409    0.09341    0.10447    1.000
    N2960    N        0.73402    0.08315    0.09610    1.000
    Si2961   Si       0.70483    0.11296    0.11324    1.000
    Si2962   Si       0.55741    0.19124    0.07140    1.000
    Si2963   Si       0.51625    0.14831    0.10895    1.000
    N2964    N        0.58468    0.22491    0.06664    1.000
    N2965    N        0.55313    0.17401    0.11113    1.000
    Si2966   Si       0.58354    0.14329    0.11462    1.000
    Si2967   Si       0.73956    0.17363    0.05878    1.000
    N2968    N        0.70156    0.14813    0.08972    1.000
    Si2969   Si       0.67481    0.16374    0.05690    1.000
    Si2970   Si       0.71816    0.24560    0.06526    1.000
    N2971    N        0.65190    0.19727    0.07410    1.000
    N2972    N        0.73118    0.20823    0.08619    1.000
    Si2973   Si       0.62901    0.23046    0.05738    1.000
    N2974    N        0.57556    0.10986    0.14346    1.000
    Si2975   Si       0.58479    0.02514    0.13075    1.000
    N2976    N        0.52253    0.07769    0.15501    1.000
    Si2977   Si       0.60647    0.08882    0.16753    1.000
    Si2978   Si       0.54680    0.08278    0.12006    1.000
    Si2979   Si       0.54143    0.11920    0.16886    1.000
    N2980    N        0.49410    0.01710    0.16542    1.000
    N2981    N        0.61464    0.05650    0.14036    1.000
    N2982    N        0.57058    0.01212    0.17068    1.000
    Si2983   Si       0.65475    0.05633    0.12493    1.000
    N2984    N        0.70533    0.12272    0.15682    1.000
    N2985    N        0.68132    0.05744    0.16015    1.000
    N2986    N        0.50965    0.14295    0.15009    1.000
    Si2987   Si       0.55066    0.19356    0.15293    1.000
    N2988    N        0.57176    0.22854    0.16840    1.000
    N2989    N        0.51061    0.20252    0.16770    1.000
    Si2990   Si       0.61757    0.16224    0.17128    1.000
    N2991    N        0.63582    0.23859    0.12555    1.000
    N2992    N        0.68354    0.19836    0.14242    1.000
    N2993    N        0.73467    0.23965    0.16139    1.000
    N2994    N        0.61634    0.17071    0.12773    1.000
    Si2995   Si       0.71528    0.22269    0.12559    1.000
    Si2996   Si       0.61391    0.23182    0.16202    1.000
    Si2997   Si       0.64741    0.19672    0.11663    1.000
    N2998    N        0.59131    0.07249    0.20518    1.000
    N2999    N        0.53880    0.11600    0.21234    1.000
    Si3000   Si       0.59620    0.03032    0.20438    1.000
    N3001    N        0.50287    0.04949    0.21878    1.000
    Si3002   Si       0.49019    0.06053    0.17736    1.000
    N3003    N        0.67201    0.07595    0.21546    1.000
    Si3004   Si       0.67659    0.03361    0.19652    1.000
    N3005    N        0.63546    0.01668    0.19558    1.000
    Si3006   Si       0.67459    0.10014    0.17906    1.000
    N3007    N        0.63596    0.12124    0.17682    1.000
    Si3008   Si       0.57091    0.16308    0.22441    1.000
    N3009    N        0.57300    0.16285    0.17859    1.000
    Si3010   Si       0.50559    0.13755    0.23265    1.000
    Si3011   Si       0.48665    0.23739    0.18062    1.000
    N3012    N        0.51119    0.25672    0.21200    1.000
    N3013    N        0.59161    0.19943    0.23125    1.000
    N3014    N        0.70841    0.17960    0.20170    1.000
    N3015    N        0.73696    0.25319    0.22712    1.000
    N3016    N        0.63589    0.19974    0.18466    1.000
    Si3017   Si       0.67794    0.20705    0.18446    1.000
    Si3018   Si       0.73168    0.15373    0.17541    1.000
    N3019    N        0.67081    0.23533    0.22116    1.000
    N3020    N        0.54773    0.07924    0.26400    1.000
    Si3021   Si       0.50800    0.07167    0.25678    1.000
    Si3022   Si       0.60145    0.02471    0.28436    1.000
    N3023    N        0.58978    0.01148    0.24418    1.000
    Si3024   Si       0.57160    0.09695    0.23444    1.000
    N3025    N        0.48495    0.10724    0.25551    1.000
    Si3026   Si       0.66599    0.07047    0.25760    1.000
    N3027    N        0.62927    0.05737    0.27709    1.000
    N3028    N        0.69812    0.04399    0.26867    1.000
    N3029    N        0.65741    0.10928    0.28098    1.000
    Si3030   Si       0.73969    0.03644    0.26547    1.000
    N3031    N        0.71941    0.13497    0.25856    1.000
    N3032    N        0.59364    0.13190    0.24661    1.000
    Si3033   Si       0.58369    0.22935    0.26057    1.000
    N3034    N        0.53399    0.17006    0.24436    1.000
    Si3035   Si       0.53086    0.18398    0.28530    1.000
    N3036    N        0.48890    0.19702    0.28293    1.000
    N3037    N        0.55696    0.21762    0.29315    1.000
    Si3038   Si       0.70160    0.24262    0.25156    1.000
    Si3039   Si       0.63577    0.20793    0.23338    1.000
    N3040    N        0.65529    0.17094    0.24728    1.000
    N3041    N        0.62432    0.22871    0.27471    1.000
    Si3042   Si       0.62976    0.14276    0.26784    1.000
    Si3043   Si       0.69953    0.16976    0.24271    1.000
    N3044    N        0.71373    0.20358    0.26928    1.000
    N3045    N        0.51541    0.08830    0.32317    1.000
    N3046    N        0.57127    0.03706    0.31275    1.000
    N3047    N        0.58850    0.10265    0.31746    1.000
    Si3048   Si       0.55542    0.07779    0.30785    1.000
    Si3049   Si       0.51378    0.12776    0.33968    1.000
    Si3050   Si       0.55649    0.01170    0.34248    1.000
    N3051    N        0.71927    0.08853    0.31380    1.000
    Si3052   Si       0.62772    0.08789    0.30809    1.000
    N3053    N        0.65476    0.08016    0.34176    1.000
    Si3054   Si       0.69423    0.06389    0.34036    1.000
    Si3055   Si       0.69843    0.12132    0.29394    1.000
    N3056    N        0.69032    0.02075    0.34748    1.000
    Si3057   Si       0.58275    0.14695    0.32182    1.000
    Si3058   Si       0.56015    0.24554    0.32415    1.000
    N3059    N        0.54038    0.15244    0.31284    1.000
    N3060    N        0.59734    0.23020    0.34389    1.000
    N3061    N        0.62250    0.15721    0.30709    1.000
    N3062    N        0.66060    0.20749    0.33208    1.000
    N3063    N        0.69389    0.14954    0.32609    1.000
    Si3064   Si       0.65385    0.16405    0.33619    1.000
    N3065    N        0.72697    0.23172    0.33029    1.000
    Si3066   Si       0.63183    0.23617    0.31620    1.000
    N3067    N        0.54153    0.03863    0.37333    1.000
    N3068    N        0.59775    0.09214    0.38913    1.000
    Si3069   Si       0.50112    0.02420    0.38214    1.000
    Si3070   Si       0.57226    0.05740    0.39689    1.000
    N3071    N        0.53389    0.12134    0.37704    1.000
    N3072    N        0.60537    0.02709    0.40383    1.000
    Si3073   Si       0.57593    0.12957    0.39360    1.000
    Si3074   Si       0.63952    0.09672    0.37939    1.000
    N3075    N        0.71808    0.06860    0.37766    1.000
    Si3076   Si       0.72056    0.01382    0.38038    1.000
    Si3077   Si       0.53161    0.25165    0.39197    1.000
    N3078    N        0.58511    0.16135    0.36319    1.000
    Si3079   Si       0.59239    0.20182    0.37804    1.000
    N3080    N        0.56181    0.21702    0.40756    1.000
    N3081    N        0.52613    0.24652    0.34973    1.000
    Si3082   Si       0.66470    0.16789    0.40477    1.000
    N3083    N        0.65225    0.13842    0.37590    1.000
    N3084    N        0.63047    0.19570    0.39902    1.000
    Si3085   Si       0.69246    0.22468    0.35624    1.000
    N3086    N        0.66959    0.25459    0.38043    1.000
    N3087    N        0.70185    0.18916    0.38498    1.000
    Si3088   Si       0.72366    0.16031    0.35948    1.000
    N3089    N        0.54959    0.07033    0.43194    1.000
    Si3090   Si       0.50532    0.06493    0.44881    1.000
    N3091    N        0.49917    0.02718    0.42553    1.000
    N3092    N        0.60939    0.07321    0.45619    1.000
    N3093    N        0.49070    0.10223    0.43066    1.000
    Si3094   Si       0.51981    0.13019    0.41695    1.000
    N3095    N        0.70516    0.02398    0.42200    1.000
    Si3096   Si       0.63181    0.04880    0.43140    1.000
    N3097    N        0.71765    0.09917    0.44298    1.000
    Si3098   Si       0.70153    0.06754    0.41693    1.000
    N3099    N        0.64692    0.02118    0.46429    1.000
    N3100    N        0.65987    0.07558    0.41124    1.000
    Si3101   Si       0.68759    0.12261    0.46557    1.000
    N3102    N        0.49943    0.23757    0.41850    1.000
    Si3103   Si       0.58236    0.22732    0.44476    1.000
    N3104    N        0.55757    0.14278    0.43247    1.000
    Si3105   Si       0.52255    0.20147    0.42282    1.000
    N3106    N        0.61062    0.25381    0.42501    1.000
    N3107    N        0.53149    0.19822    0.46486    1.000
    N3108    N        0.59929    0.19144    0.46377    1.000
    N3109    N        0.49962    0.16813    0.40965    1.000
    N3110    N        0.66157    0.15169    0.44425    1.000
    Si3111   Si       0.71706    0.20883    0.42339    1.000
    N3112    N        0.67868    0.22113    0.43837    1.000
    Si3113   Si       0.64685    0.23304    0.41312    1.000
    N3114    N        0.58201    0.08205    0.50957    1.000
    N3115    N        0.52472    0.05884    0.48867    1.000
    N3116    N        0.57986    0.01959    0.47809    1.000
    Si3117   Si       0.56742    0.06435    0.47017    1.000
    Si3118   Si       0.61801    0.02276    0.49705    1.000
    N3119    N        0.70756    0.02867    0.48935    1.000
    N3120    N        0.66711    0.08756    0.48201    1.000
    Si3121   Si       0.68201    0.05753    0.50765    1.000
    Si3122   Si       0.62469    0.08809    0.49549    1.000
    N3123    N        0.63911    0.05023    0.52282    1.000
    Si3124   Si       0.53149    0.23395    0.48816    1.000
    N3125    N        0.56056    0.15433    0.51195    1.000
    N3126    N        0.49172    0.24839    0.48479    1.000
    Si3127   Si       0.56126    0.16725    0.47072    1.000
    N3128    N        0.72274    0.22823    0.48875    1.000
    Si3129   Si       0.67915    0.22296    0.48174    1.000
    N3130    N        0.62521    0.13113    0.50801    1.000
    N3131    N        0.65415    0.19436    0.50249    1.000
    N3132    N        0.70071    0.14158    0.50148    1.000
    Si3133   Si       0.63276    0.16485    0.47881    1.000
    N3134    N        0.59191    0.11803    0.56591    1.000
    N3135    N        0.53276    0.09830    0.54527    1.000
    N3136    N        0.54656    0.02188    0.54534    1.000
    Si3137   Si       0.49373    0.11690    0.55457    1.000
    Si3138   Si       0.54753    0.05924    0.52729    1.000
    Si3139   Si       0.56853    0.11729    0.52976    1.000
    Si3140   Si       0.64086    0.01994    0.55554    1.000
    N3141    N        0.65747    0.10952    0.57137    1.000
    N3142    N        0.70362    0.06491    0.54435    1.000
    Si3143   Si       0.71527    0.02545    0.55846    1.000
    Si3144   Si       0.70104    0.09761    0.57165    1.000
    N3145    N        0.73321    0.12717    0.56277    1.000
    Si3146   Si       0.53507    0.24911    0.56364    1.000
    Si3147   Si       0.53594    0.17831    0.54042    1.000
    N3148    N        0.53529    0.22116    0.53026    1.000
    N3149    N        0.49491    0.15924    0.54457    1.000
    N3150    N        0.55019    0.17250    0.58114    1.000
    Si3151   Si       0.60655    0.25111    0.57915    1.000
    N3152    N        0.69754    0.19090    0.55705    1.000
    Si3153   Si       0.72115    0.15914    0.53437    1.000
    Si3154   Si       0.62907    0.13415    0.55064    1.000
    N3155    N        0.63044    0.17394    0.56435    1.000
    N3156    N        0.63578    0.23958    0.54950    1.000
    Si3157   Si       0.65597    0.20072    0.54424    1.000
    N3158    N        0.54453    0.12087    0.62431    1.000
    Si3159   Si       0.50474    0.10734    0.63126    1.000
    N3160    N        0.62027    0.09476    0.63938    1.000
    Si3161   Si       0.70613    0.04213    0.62999    1.000
    N3162    N        0.68957    0.07596    0.61076    1.000
    Si3163   Si       0.64563    0.08215    0.60522    1.000
    N3164    N        0.72671    0.01836    0.59967    1.000
    Si3165   Si       0.63544    0.01102    0.62796    1.000
    N3166    N        0.63397    0.04059    0.59265    1.000
    Si3167   Si       0.57089    0.13854    0.59668    1.000
    Si3168   Si       0.55423    0.20392    0.61460    1.000
    N3169    N        0.59272    0.21988    0.60345    1.000
    N3170    N        0.52153    0.23255    0.60127    1.000
    N3171    N        0.59972    0.15849    0.62336    1.000
    Si3172   Si       0.50391    0.25176    0.63474    1.000
    Si3173   Si       0.69952    0.20282    0.59950    1.000
    Si3174   Si       0.62328    0.18887    0.60473    1.000
    N3175    N        0.65949    0.20793    0.61836    1.000
    N3176    N        0.72607    0.17912    0.62180    1.000
    N3177    N        0.70342    0.24760    0.60312    1.000
    Si3178   Si       0.66510    0.25345    0.62376    1.000
    Si3179   Si       0.60698    0.06296    0.66655    1.000
    N3180    N        0.57167    0.06678    0.69045    1.000
    N3181    N        0.60043    0.02283    0.64988    1.000
    N3182    N        0.53093    0.01044    0.66747    1.000
    Si3183   Si       0.53928    0.03886    0.69985    1.000
    N3184    N        0.50257    0.13045    0.66728    1.000
    N3185    N        0.49075    0.07094    0.65008    1.000
    Si3186   Si       0.61267    0.13380    0.65782    1.000
    Si3187   Si       0.66359    0.02779    0.69167    1.000
    N3188    N        0.63815    0.06441    0.69719    1.000
    N3189    N        0.67134    0.02166    0.65008    1.000
    N3190    N        0.74039    0.05254    0.65527    1.000
    Si3191   Si       0.73738    0.05159    0.70103    1.000
    N3192    N        0.57780    0.13349    0.68452    1.000
    N3193    N        0.49077    0.22959    0.67177    1.000
    N3194    N        0.54308    0.18963    0.65352    1.000
    Si3195   Si       0.52540    0.20946    0.68850    1.000
    Si3196   Si       0.54351    0.14593    0.66010    1.000
    Si3197   Si       0.70581    0.24569    0.69673    1.000
    Si3198   Si       0.65599    0.18205    0.70246    1.000
    N3199    N        0.64840    0.14922    0.67556    1.000
    N3200    N        0.69670    0.20275    0.69744    1.000
    N3201    N        0.62272    0.20766    0.70897    1.000
    N3202    N        0.60387    0.10612    0.74395    1.000
    N3203    N        0.53550    0.11929    0.73578    1.000
    Si3204   Si       0.57204    0.10406    0.71417    1.000
    N3205    N        0.50501    0.06199    0.71511    1.000
    Si3206   Si       0.51567    0.08221    0.75259    1.000
    N3207    N        0.55391    0.00705    0.72983    1.000
    N3208    N        0.70107    0.03678    0.71609    1.000
    Si3209   Si       0.63955    0.08363    0.73445    1.000
    N3210    N        0.68012    0.09379    0.74897    1.000
    Si3211   Si       0.68710    0.05159    0.75492    1.000
    N3212    N        0.64090    0.04688    0.76026    1.000
    N3213    N        0.59026    0.24580    0.75706    1.000
    N3214    N        0.56511    0.18731    0.74959    1.000
    Si3215   Si       0.58446    0.21825    0.72400    1.000
    N3216    N        0.50756    0.17806    0.71379    1.000
    Si3217   Si       0.52974    0.16140    0.75053    1.000
    N3218    N        0.55255    0.23908    0.70362    1.000
    Si3219   Si       0.72759    0.17803    0.71374    1.000
    N3220    N        0.66303    0.16386    0.74135    1.000
    N3221    N        0.72662    0.15235    0.74772    1.000
    Si3222   Si       0.69062    0.13442    0.76078    1.000
    Si3223   Si       0.58125    0.09808    0.78101    1.000
    Si3224   Si       0.55699    0.02436    0.76901    1.000
    N3225    N        0.60693    0.08160    0.81165    1.000
    Si3226   Si       0.49372    0.01682    0.80648    1.000
    N3227    N        0.59528    0.01398    0.78665    1.000
    N3228    N        0.55743    0.12581    0.79929    1.000
    N3229    N        0.49184    0.05347    0.78259    1.000
    N3230    N        0.55590    0.06644    0.76682    1.000
    Si3231   Si       0.62154    0.04399    0.80011    1.000
    N3232    N        0.70605    0.04336    0.79308    1.000
    N3233    N        0.73162    0.10831    0.80273    1.000
    Si3234   Si       0.68284    0.01056    0.81250    1.000
    Si3235   Si       0.58350    0.20949    0.78155    1.000
    N3236    N        0.51231    0.17420    0.78883    1.000
    N3237    N        0.55557    0.22654    0.81060    1.000
    Si3238   Si       0.51645    0.20989    0.81375    1.000
    N3239    N        0.61303    0.18179    0.79720    1.000
    N3240    N        0.62004    0.25556    0.82149    1.000
    N3241    N        0.67101    0.14343    0.80054    1.000
    Si3242   Si       0.65196    0.17865    0.78170    1.000
    Si3243   Si       0.69509    0.24672    0.78143    1.000
    N3244    N        0.73633    0.24667    0.79267    1.000
    N3245    N        0.67065    0.21496    0.79374    1.000
    N3246    N        0.56904    0.10308    0.86595    1.000
    Si3247   Si       0.60899    0.09456    0.85283    1.000
    N3248    N        0.50601    0.12636    0.84400    1.000
    Si3249   Si       0.62434    0.02065    0.86696    1.000
    N3250    N        0.68397    0.09376    0.84982    1.000
    N3251    N        0.64694    0.02580    0.83094    1.000
    N3252    N        0.62638    0.06272    0.87831    1.000
    N3253    N        0.63120    0.13241    0.85233    1.000
    Si3254   Si       0.71497    0.07531    0.82453    1.000
    Si3255   Si       0.54846    0.13410    0.84047    1.000
    Si3256   Si       0.58146    0.24996    0.83826    1.000
    N3257    N        0.51255    0.19709    0.85610    1.000
    N3258    N        0.57186    0.16773    0.85570    1.000
    N3259    N        0.57122    0.23428    0.87585    1.000
    Si3260   Si       0.61135    0.16889    0.83931    1.000
    Si3261   Si       0.54961    0.19714    0.87828    1.000
    Si3262   Si       0.67385    0.13416    0.84230    1.000
    N3263    N        0.63991    0.19884    0.85642    1.000
    N3264    N        0.71121    0.15386    0.85593    1.000
    N3265    N        0.68404    0.25433    0.84735    1.000
    Si3266   Si       0.65361    0.23099    0.83110    1.000
    Si3267   Si       0.71544    0.25190    0.87764    1.000
    N3268    N        0.51853    0.10613    0.91429    1.000
    Si3269   Si       0.55345    0.08216    0.90113    1.000
    N3270    N        0.53892    0.04379    0.88585    1.000
    Si3271   Si       0.49572    0.03924    0.88093    1.000
    N3272    N        0.58217    0.07614    0.93500    1.000
    N3273    N        0.58989    0.00689    0.92256    1.000
    N3274    N        0.66235    0.09508    0.92508    1.000
    N3275    N        0.69136    0.04411    0.90167    1.000
    Si3276   Si       0.66639    0.07766    0.88585    1.000
    Si3277   Si       0.58813    0.24756    0.91649    1.000
    N3278    N        0.55106    0.18085    0.91969    1.000
    N3279    N        0.54724    0.24299    0.93501    1.000
    N3280    N        0.61011    0.14165    0.93604    1.000
    Si3281   Si       0.58994    0.17828    0.93809    1.000
    N3282    N        0.61400    0.21017    0.91760    1.000
    N3283    N        0.67355    0.16311    0.90925    1.000
    Si3284   Si       0.65377    0.13483    0.93539    1.000
    N3285    N        0.69023    0.21678    0.89791    1.000
    Si3286   Si       0.70998    0.17678    0.89173    1.000
    Si3287   Si       0.65036    0.20057    0.89793    1.000
    Si3288   Si       0.58844    0.11142    0.95919    1.000
    N3289    N        0.50493    0.07475    0.97410    1.000
    Si3290   Si       0.51419    0.11446    0.95752    1.000
    Si3291   Si       0.60623    0.03978    0.94844    1.000
    N3292    N        0.55312    0.13099    0.97413    1.000
    N3293    N        0.59828    0.03362    0.99184    1.000
    N3294    N        0.61586    0.09943    0.99049    1.000
    N3295    N        0.72794    0.05272    0.95757    1.000
    N3296    N        0.65080    0.03443    0.95037    1.000
    Si3297   Si       0.68526    0.06175    0.94484    1.000
    N3298    N        0.68219    0.07604    0.98878    1.000
    N3299    N        0.51536    0.18778    0.98116    1.000
    N3300    N        0.58201    0.19422    0.97946    1.000
    Si3301   Si       0.59721    0.23535    0.98840    1.000
    Si3302   Si       0.55022    0.16889    0.99767    1.000
    Si3303   Si       0.52352    0.20777    0.93997    1.000
    N3304    N        0.66814    0.14249    0.97366    1.000
    Si3305   Si       0.69938    0.22936    0.93882    1.000
    N3306    N        0.71324    0.20073    0.97032    1.000
    N3307    N        0.66681    0.25165    0.95652    1.000
    Si3308   Si       0.70632    0.16107    0.98514    1.000
    N3309    N        0.53433    0.32898    0.01416    1.000
    Si3310   Si       0.57505    0.34330    0.03568    1.000
    N3311    N        0.60012    0.31463    0.00674    1.000
    Si3312   Si       0.50839    0.31402    0.04597    1.000
    N3313    N        0.66512    0.29749    0.01122    1.000
    Si3314   Si       0.63021    0.30461    0.03654    1.000
    Si3315   Si       0.71661    0.36964    0.03814    1.000
    N3316    N        0.72687    0.32937    0.05220    1.000
    N3317    N        0.69326    0.36234    0.00161    1.000
    N3318    N        0.57599    0.38641    0.02135    1.000
    Si3319   Si       0.58627    0.41930    0.04970    1.000
    N3320    N        0.57720    0.45856    0.03580    1.000
    N3321    N        0.51566    0.40962    0.02976    1.000
    N3322    N        0.67521    0.49992    0.00492    1.000
    N3323    N        0.67241    0.42715    0.00477    1.000
    Si3324   Si       0.66633    0.42246    0.04658    1.000
    N3325    N        0.53447    0.28810    0.07119    1.000
    N3326    N        0.54803    0.35090    0.07134    1.000
    Si3327   Si       0.54388    0.31945    0.10115    1.000
    Si3328   Si       0.51551    0.37940    0.06049    1.000
    N3329    N        0.61051    0.33424    0.06564    1.000
    Si3330   Si       0.62035    0.33255    0.10706    1.000
    N3331    N        0.63890    0.27140    0.06502    1.000
    Si3332   Si       0.65748    0.27019    0.10520    1.000
    N3333    N        0.69818    0.25784    0.10258    1.000
    N3334    N        0.57328    0.41975    0.09003    1.000
    N3335    N        0.51930    0.46741    0.09634    1.000
    N3336    N        0.50516    0.40038    0.09803    1.000
    Si3337   Si       0.58211    0.48962    0.06883    1.000
    Si3338   Si       0.53640    0.42811    0.10906    1.000
    Si3339   Si       0.70597    0.42760    0.09508    1.000
    N3340    N        0.67770    0.45606    0.07401    1.000
    Si3341   Si       0.61374    0.40822    0.10184    1.000
    N3342    N        0.62735    0.40949    0.06052    1.000
    N3343    N        0.69635    0.39633    0.06373    1.000
    Si3344   Si       0.64550    0.47600    0.09576    1.000
    N3345    N        0.62503    0.49715    0.06373    1.000
    N3346    N        0.58125    0.32202    0.12602    1.000
    Si3347   Si       0.50986    0.34786    0.16242    1.000
    N3348    N        0.51244    0.31896    0.12999    1.000
    Si3349   Si       0.57658    0.33205    0.16738    1.000
    N3350    N        0.54705    0.36719    0.16917    1.000
    Si3351   Si       0.68866    0.31841    0.14892    1.000
    N3352    N        0.72732    0.32133    0.13059    1.000
    Si3353   Si       0.63797    0.36849    0.16204    1.000
    N3354    N        0.62642    0.37242    0.12114    1.000
    N3355    N        0.65322    0.30877    0.12442    1.000
    N3356    N        0.68026    0.35818    0.16555    1.000
    N3357    N        0.54713    0.43511    0.15023    1.000
    Si3358   Si       0.56914    0.47125    0.15033    1.000
    Si3359   Si       0.51809    0.49899    0.12883    1.000
    N3360    N        0.54163    0.50176    0.16591    1.000
    N3361    N        0.58084    0.49490    0.11271    1.000
    Si3362   Si       0.63762    0.44838    0.16200    1.000
    N3363    N        0.71045    0.41464    0.13638    1.000
    N3364    N        0.63081    0.44307    0.12009    1.000
    Si3365   Si       0.70713    0.39139    0.17205    1.000
    N3366    N        0.55636    0.29905    0.18743    1.000
    Si3367   Si       0.52132    0.29839    0.21188    1.000
    N3368    N        0.49428    0.32648    0.19600    1.000
    Si3369   Si       0.57417    0.26228    0.19737    1.000
    N3370    N        0.61388    0.34282    0.18637    1.000
    Si3371   Si       0.65525    0.27650    0.20877    1.000
    Si3372   Si       0.72725    0.27243    0.18863    1.000
    N3373    N        0.68728    0.28897    0.18040    1.000
    N3374    N        0.61904    0.26597    0.18944    1.000
    Si3375   Si       0.61862    0.33507    0.23111    1.000
    N3376    N        0.57144    0.40923    0.21669    1.000
    N3377    N        0.50222    0.41024    0.20269    1.000
    Si3378   Si       0.60345    0.47459    0.21878    1.000
    Si3379   Si       0.54252    0.40759    0.18449    1.000
    N3380    N        0.60234    0.46795    0.17636    1.000
    N3381    N        0.70900    0.42038    0.20607    1.000
    N3382    N        0.72891    0.48896    0.21633    1.000
    Si3383   Si       0.69438    0.46121    0.21373    1.000
    Si3384   Si       0.61508    0.40183    0.21733    1.000
    N3385    N        0.63539    0.40870    0.17956    1.000
    N3386    N        0.67217    0.47177    0.17818    1.000
    N3387    N        0.58813    0.33443    0.26263    1.000
    N3388    N        0.52243    0.30777    0.25495    1.000
    Si3389   Si       0.56311    0.29811    0.26638    1.000
    N3390    N        0.57473    0.26617    0.24194    1.000
    N3391    N        0.70090    0.27907    0.27670    1.000
    Si3392   Si       0.66074    0.30007    0.28112    1.000
    N3393    N        0.64548    0.30235    0.24130    1.000
    Si3394   Si       0.66824    0.37819    0.27011    1.000
    N3395    N        0.63889    0.37306    0.23871    1.000
    N3396    N        0.70992    0.38044    0.26220    1.000
    N3397    N        0.59110    0.40827    0.28277    1.000
    N3398    N        0.52268    0.42358    0.26815    1.000
    Si3399   Si       0.56277    0.42867    0.25400    1.000
    N3400    N        0.56939    0.47026    0.24487    1.000
    Si3401   Si       0.55704    0.50724    0.26409    1.000
    Si3402   Si       0.71688    0.46506    0.28418    1.000
    Si3403   Si       0.62645    0.43473    0.27751    1.000
    N3404    N        0.68344    0.46888    0.25582    1.000
    Si3405   Si       0.64910    0.49715    0.26525    1.000
    N3406    N        0.62665    0.43953    0.23517    1.000
    N3407    N        0.57084    0.28501    0.30847    1.000
    Si3408   Si       0.50486    0.34506    0.31390    1.000
    N3409    N        0.59845    0.34786    0.33023    1.000
    Si3410   Si       0.60514    0.30405    0.33099    1.000
    N3411    N        0.53865    0.36670    0.29965    1.000
    Si3412   Si       0.49504    0.27576    0.33674    1.000
    N3413    N        0.51510    0.31401    0.34305    1.000
    Si3414   Si       0.58346    0.36634    0.29464    1.000
    N3415    N        0.63947    0.28023    0.31410    1.000
    Si3416   Si       0.68377    0.34621    0.33276    1.000
    N3417    N        0.72698    0.33268    0.31761    1.000
    N3418    N        0.66356    0.34169    0.29621    1.000
    N3419    N        0.53135    0.43459    0.33416    1.000
    Si3420   Si       0.51555    0.40509    0.30569    1.000
    Si3421   Si       0.51276    0.47333    0.32937    1.000
    N3422    N        0.52674    0.49354    0.29308    1.000
    N3423    N        0.71465    0.44231    0.32140    1.000
    Si3424   Si       0.67810    0.42131    0.32912    1.000
    N3425    N        0.62269    0.47480    0.29337    1.000
    Si3426   Si       0.62113    0.47886    0.33531    1.000
    N3427    N        0.65730    0.41259    0.29296    1.000
    N3428    N        0.55755    0.36164    0.38792    1.000
    Si3429   Si       0.53353    0.32369    0.38157    1.000
    Si3430   Si       0.59713    0.35903    0.37147    1.000
    N3431    N        0.55417    0.28808    0.39407    1.000
    N3432    N        0.61741    0.30610    0.37485    1.000
    Si3433   Si       0.65839    0.29650    0.38592    1.000
    N3434    N        0.68805    0.32043    0.36663    1.000
    N3435    N        0.62805    0.36545    0.40475    1.000
    Si3436   Si       0.73183    0.32284    0.35938    1.000
    Si3437   Si       0.55795    0.50625    0.36957    1.000
    N3438    N        0.51593    0.49388    0.36616    1.000
    N3439    N        0.60181    0.40581    0.36549    1.000
    Si3440   Si       0.56761    0.43223    0.35932    1.000
    N3441    N        0.55566    0.43361    0.40222    1.000
    N3442    N        0.58162    0.47310    0.35246    1.000
    Si3443   Si       0.67336    0.46152    0.38725    1.000
    N3444    N        0.66618    0.50098    0.40313    1.000
    N3445    N        0.67227    0.38475    0.35223    1.000
    Si3446   Si       0.64319    0.39970    0.38242    1.000
    N3447    N        0.71698    0.46802    0.38459    1.000
    N3448    N        0.65352    0.45194    0.35034    1.000
    N3449    N        0.59325    0.31817    0.44258    1.000
    Si3450   Si       0.50483    0.35073    0.44441    1.000
    N3451    N        0.49946    0.32546    0.40914    1.000
    Si3452   Si       0.59370    0.29084    0.40807    1.000
    Si3453   Si       0.63020    0.33992    0.44173    1.000
    N3454    N        0.65585    0.30415    0.42989    1.000
    N3455    N        0.49719    0.47214    0.42884    1.000
    N3456    N        0.58495    0.39318    0.45177    1.000
    N3457    N        0.51553    0.39668    0.43851    1.000
    Si3458   Si       0.54234    0.46667    0.42580    1.000
    Si3459   Si       0.55550    0.39273    0.42008    1.000
    N3460    N        0.56357    0.50283    0.41351    1.000
    Si3461   Si       0.73237    0.39746    0.46581    1.000
    N3462    N        0.65629    0.43017    0.41152    1.000
    Si3463   Si       0.73297    0.46645    0.45621    1.000
    N3464    N        0.71385    0.50571    0.44519    1.000
    Si3465   Si       0.66695    0.43148    0.45299    1.000
    N3466    N        0.70820    0.43075    0.45436    1.000
    Si3467   Si       0.55356    0.35367    0.50380    1.000
    N3468    N        0.57531    0.31340    0.51237    1.000
    N3469    N        0.59678    0.36898    0.51449    1.000
    N3470    N        0.53220    0.33068    0.46984    1.000
    Si3471   Si       0.56475    0.30091    0.47109    1.000
    N3472    N        0.56076    0.25801    0.46910    1.000
    Si3473   Si       0.61670    0.33234    0.51934    1.000
    N3474    N        0.64527    0.33482    0.48422    1.000
    Si3475   Si       0.67277    0.36700    0.49298    1.000
    Si3476   Si       0.72858    0.26798    0.50283    1.000
    N3477    N        0.70951    0.29852    0.47913    1.000
    N3478    N        0.66157    0.26072    0.49060    1.000
    N3479    N        0.70858    0.36158    0.47112    1.000
    Si3480   Si       0.66798    0.29843    0.47034    1.000
    Si3481   Si       0.73903    0.32972    0.47092    1.000
    Si3482   Si       0.60426    0.40509    0.48849    1.000
    N3483    N        0.53495    0.39214    0.50248    1.000
    Si3484   Si       0.52449    0.42195    0.47640    1.000
    N3485    N        0.59502    0.43802    0.51732    1.000
    N3486    N        0.60211    0.49911    0.49832    1.000
    Si3487   Si       0.56953    0.47212    0.50209    1.000
    N3488    N        0.53384    0.48774    0.52450    1.000
    N3489    N        0.55132    0.45620    0.46737    1.000
    N3490    N        0.73323    0.47476    0.49742    1.000
    N3491    N        0.65555    0.47150    0.47182    1.000
    Si3492   Si       0.64151    0.48518    0.51094    1.000
    N3493    N        0.64860    0.40131    0.47912    1.000
    Si3494   Si       0.56165    0.31529    0.55857    1.000
    N3495    N        0.57112    0.27231    0.56550    1.000
    N3496    N        0.52662    0.34552    0.54172    1.000
    N3497    N        0.50265    0.27777    0.54554    1.000
    Si3498   Si       0.49866    0.31880    0.56071    1.000
    N3499    N        0.59528    0.33706    0.57370    1.000
    N3500    N        0.64091    0.30661    0.54285    1.000
    N3501    N        0.67925    0.36955    0.53585    1.000
    N3502    N        0.70362    0.26770    0.53916    1.000
    Si3503   Si       0.72108    0.27555    0.57700    1.000
    Si3504   Si       0.68777    0.35320    0.57742    1.000
    Si3505   Si       0.66116    0.27093    0.53314    1.000
    N3506    N        0.71618    0.32029    0.58345    1.000
    Si3507   Si       0.50984    0.38745    0.53788    1.000
    N3508    N        0.51517    0.42731    0.55623    1.000
    Si3509   Si       0.60908    0.44321    0.55836    1.000
    Si3510   Si       0.50027    0.46128    0.53132    1.000
    Si3511   Si       0.67644    0.40691    0.55789    1.000
    N3512    N        0.72765    0.49965    0.55717    1.000
    N3513    N        0.70153    0.43911    0.54677    1.000
    N3514    N        0.63532    0.47600    0.55444    1.000
    Si3515   Si       0.70385    0.46949    0.57735    1.000
    N3516    N        0.63413    0.40993    0.56954    1.000
    N3517    N        0.52900    0.31330    0.59279    1.000
    Si3518   Si       0.52558    0.31740    0.63456    1.000
    N3519    N        0.60962    0.37963    0.63182    1.000
    Si3520   Si       0.56332    0.37664    0.63249    1.000
    Si3521   Si       0.60795    0.37829    0.58703    1.000
    N3522    N        0.63336    0.27631    0.60369    1.000
    N3523    N        0.65086    0.34818    0.59883    1.000
    Si3524   Si       0.63086    0.31353    0.58521    1.000
    N3525    N        0.55019    0.50669    0.63526    1.000
    N3526    N        0.56341    0.39116    0.59265    1.000
    Si3527   Si       0.57526    0.49817    0.60071    1.000
    N3528    N        0.51631    0.44993    0.61738    1.000
    Si3529   Si       0.54494    0.43052    0.59021    1.000
    N3530    N        0.57627    0.45921    0.58126    1.000
    N3531    N        0.67778    0.48856    0.60653    1.000
    Si3532   Si       0.64375    0.50435    0.58600    1.000
    N3533    N        0.73221    0.45101    0.60598    1.000
    N3534    N        0.70117    0.39125    0.59239    1.000
    N3535    N        0.61473    0.50333    0.61872    1.000
    Si3536   Si       0.72233    0.41151    0.62308    1.000
    Si3537   Si       0.58909    0.33373    0.68255    1.000
    N3538    N        0.53250    0.27892    0.65315    1.000
    Si3539   Si       0.54367    0.27991    0.69584    1.000
    N3540    N        0.55637    0.34019    0.65488    1.000
    N3541    N        0.59260    0.37278    0.70054    1.000
    N3542    N        0.62636    0.32303    0.66193    1.000
    Si3543   Si       0.66520    0.30432    0.67537    1.000
    N3544    N        0.69059    0.33465    0.65421    1.000
    N3545    N        0.67772    0.26338    0.66433    1.000
    Si3546   Si       0.73097    0.34171    0.66523    1.000
    Si3547   Si       0.64974    0.35719    0.64254    1.000
    N3548    N        0.59775    0.49977    0.68710    1.000
    N3549    N        0.52169    0.46712    0.68659    1.000
    Si3550   Si       0.52592    0.42323    0.68078    1.000
    N3551    N        0.56151    0.41034    0.66103    1.000
    Si3552   Si       0.61022    0.40241    0.67228    1.000
    Si3553   Si       0.51583    0.48228    0.64569    1.000
    Si3554   Si       0.69206    0.50747    0.64261    1.000
    Si3555   Si       0.72741    0.40730    0.68554    1.000
    N3556    N        0.66643    0.48751    0.67451    1.000
    N3557    N        0.65166    0.38492    0.67814    1.000
    N3558    N        0.73281    0.50177    0.65190    1.000
    Si3559   Si       0.62463    0.48356    0.65591    1.000
    N3560    N        0.62723    0.44007    0.66246    1.000
    N3561    N        0.69898    0.42347    0.65699    1.000
    Si3562   Si       0.66687    0.43721    0.67920    1.000
    Si3563   Si       0.58412    0.28966    0.75238    1.000
    Si3564   Si       0.50940    0.31185    0.75191    1.000
    N3565    N        0.51086    0.30470    0.70914    1.000
    N3566    N        0.58008    0.30269    0.71031    1.000
    Si3567   Si       0.66907    0.36475    0.71375    1.000
    N3568    N        0.72500    0.32018    0.75428    1.000
    Si3569   Si       0.68722    0.30029    0.75016    1.000
    N3570    N        0.66648    0.32026    0.71647    1.000
    N3571    N        0.71136    0.37425    0.70821    1.000
    N3572    N        0.64437    0.37907    0.74649    1.000
    N3573    N        0.69572    0.25814    0.73785    1.000
    Si3574   Si       0.51035    0.42945    0.75761    1.000
    Si3575   Si       0.59779    0.47609    0.72423    1.000
    N3576    N        0.53415    0.41234    0.72456    1.000
    Si3577   Si       0.57546    0.39865    0.72873    1.000
    Si3578   Si       0.52118    0.49575    0.72015    1.000
    N3579    N        0.60271    0.43394    0.73006    1.000
    N3580    N        0.56635    0.49647    0.74272    1.000
    N3581    N        0.51039    0.47341    0.75734    1.000
    N3582    N        0.67470    0.43727    0.72154    1.000
    N3583    N        0.70274    0.50128    0.73764    1.000
    Si3584   Si       0.71160    0.45782    0.73507    1.000
    N3585    N        0.63471    0.49173    0.74293    1.000
    Si3586   Si       0.64286    0.42273    0.74754    1.000
    Si3587   Si       0.66431    0.50755    0.71439    1.000
    N3588    N        0.54656    0.29837    0.77135    1.000
    Si3589   Si       0.54008    0.37513    0.78663    1.000
    Si3590   Si       0.54480    0.30843    0.81493    1.000
    N3591    N        0.57730    0.37662    0.76569    1.000
    N3592    N        0.50919    0.35084    0.76717    1.000
    N3593    N        0.61465    0.31430    0.77295    1.000
    Si3594   Si       0.73913    0.33706    0.79203    1.000
    Si3595   Si       0.61877    0.35856    0.77602    1.000
    N3596    N        0.67572    0.28647    0.79158    1.000
    Si3597   Si       0.63520    0.29215    0.80486    1.000
    N3598    N        0.63025    0.37312    0.81721    1.000
    N3599    N        0.70647    0.33754    0.82001    1.000
    N3600    N        0.52823    0.41616    0.79529    1.000
    N3601    N        0.51366    0.50375    0.81135    1.000
    Si3602   Si       0.54409    0.50844    0.78190    1.000
    Si3603   Si       0.68936    0.43869    0.80621    1.000
    N3604    N        0.65059    0.43043    0.79066    1.000
    N3605    N        0.71892    0.44278    0.77371    1.000
    Si3606   Si       0.56061    0.35783    0.86420    1.000
    N3607    N        0.57465    0.29240    0.84172    1.000
    N3608    N        0.50527    0.29755    0.82950    1.000
    N3609    N        0.60152    0.34519    0.87485    1.000
    Si3610   Si       0.49607    0.31342    0.86908    1.000
    Si3611   Si       0.60839    0.30275    0.86726    1.000
    N3612    N        0.54959    0.35118    0.82085    1.000
    Si3613   Si       0.68963    0.29870    0.83610    1.000
    Si3614   Si       0.71522    0.37088    0.84871    1.000
    N3615    N        0.64626    0.31300    0.84351    1.000
    Si3616   Si       0.64084    0.35611    0.85613    1.000
    N3617    N        0.72778    0.29329    0.86282    1.000
    N3618    N        0.68025    0.36361    0.87977    1.000
    N3619    N        0.59053    0.43990    0.83286    1.000
    N3620    N        0.55905    0.40059    0.86640    1.000
    Si3621   Si       0.54690    0.42992    0.83363    1.000
    N3622    N        0.51860    0.45497    0.85525    1.000
    Si3623   Si       0.51902    0.49692    0.85333    1.000
    Si3624   Si       0.59396    0.42508    0.87580    1.000
    N3625    N        0.68057    0.46932    0.83605    1.000
    N3626    N        0.63308    0.40807    0.86894    1.000
    Si3627   Si       0.70583    0.46581    0.87202    1.000
    N3628    N        0.71434    0.40734    0.82546    1.000
    Si3629   Si       0.65530    0.50352    0.85156    1.000
    Si3630   Si       0.62940    0.41524    0.82412    1.000
    N3631    N        0.49403    0.28266    0.89988    1.000
    N3632    N        0.52962    0.33815    0.88412    1.000
    Si3633   Si       0.51736    0.27513    0.93765    1.000
    N3634    N        0.61881    0.28082    0.90259    1.000
    Si3635   Si       0.68691    0.34957    0.92211    1.000
    N3636    N        0.72816    0.34966    0.92757    1.000
    N3637    N        0.72641    0.26067    0.92065    1.000
    N3638    N        0.58387    0.45378    0.90639    1.000
    N3639    N        0.51406    0.42647    0.91636    1.000
    Si3640   Si       0.54789    0.44993    0.92999    1.000
    Si3641   Si       0.58014    0.50153    0.90437    1.000
    N3642    N        0.53938    0.49161    0.92817    1.000
    N3643    N        0.69985    0.43219    0.89509    1.000
    N3644    N        0.68241    0.49992    0.88929    1.000
    Si3645   Si       0.69016    0.50177    0.93369    1.000
    Si3646   Si       0.66710    0.40365    0.89739    1.000
    Si3647   Si       0.71988    0.43560    0.93318    1.000
    N3648    N        0.67102    0.38878    0.93905    1.000
    Si3649   Si       0.51739    0.33593    0.97670    1.000
    N3650    N        0.54286    0.30651    0.95536    1.000
    N3651    N        0.52002    0.37823    0.96776    1.000
    N3652    N        0.60239    0.26572    0.95762    1.000
    Si3653   Si       0.57402    0.29194    0.98228    1.000
    N3654    N        0.66749    0.31934    0.94598    1.000
    N3655    N        0.72709    0.30242    0.98529    1.000
    Si3656   Si       0.68851    0.32365    0.98476    1.000
    Si3657   Si       0.63984    0.28335    0.94292    1.000
    N3658    N        0.55371    0.43808    0.97219    1.000
    Si3659   Si       0.49302    0.39867    0.94323    1.000
    Si3660   Si       0.58033    0.46862    0.99378    1.000
    Si3661   Si       0.54424    0.40325    0.99648    1.000
    N3662    N        0.68688    0.46054    0.94851    1.000
    Si3663   Si       0.66221    0.46432    0.98380    1.000
    N3664    N        0.62041    0.47342    0.97605    1.000
    N3665    N        0.73022    0.41158    0.96755    1.000
    Si3666   Si       0.69087    0.39769    0.97787    1.000
    Si3667   Si       0.55028    0.53704    0.01622    1.000
    Si3668   Si       0.53318    0.61051    0.00715    1.000
    Si3669   Si       0.60431    0.58046    0.01139    1.000
    N3670    N        0.56147    0.57768    0.00693    1.000
    N3671    N        0.49614    0.59385    0.03002    1.000
    N3672    N        0.62451    0.54135    0.00578    1.000
    N3673    N        0.69032    0.60698    0.02900    1.000
    Si3674   Si       0.64830    0.51801    0.03402    1.000
    N3675    N        0.73631    0.52567    0.01988    1.000
    N3676    N        0.61854    0.59461    0.05196    1.000
    N3677    N        0.58403    0.71407    0.01379    1.000
    N3678    N        0.55181    0.64583    0.02287    1.000
    Si3679   Si       0.57209    0.67507    0.99861    1.000
    N3680    N        0.67395    0.69310    0.03393    1.000
    Si3681   Si       0.71783    0.69219    0.04321    1.000
    Si3682   Si       0.65146    0.68120    0.99851    1.000
    Si3683   Si       0.55183    0.55447    0.08918    1.000
    N3684    N        0.54431    0.59677    0.07906    1.000
    Si3685   Si       0.50286    0.60685    0.07019    1.000
    Si3686   Si       0.59590    0.60691    0.09092    1.000
    N3687    N        0.51693    0.53907    0.11171    1.000
    N3688    N        0.58864    0.56454    0.11014    1.000
    N3689    N        0.55735    0.52601    0.05630    1.000
    Si3690   Si       0.72174    0.53468    0.06130    1.000
    N3691    N        0.68094    0.60652    0.08912    1.000
    Si3692   Si       0.71864    0.61248    0.06488    1.000
    Si3693   Si       0.66215    0.58527    0.05671    1.000
    N3694    N        0.73885    0.57516    0.06430    1.000
    N3695    N        0.67714    0.54331    0.05519    1.000
    N3696    N        0.54242    0.70265    0.06390    1.000
    N3697    N        0.50533    0.65069    0.07366    1.000
    Si3698   Si       0.54767    0.65968    0.06505    1.000
    Si3699   Si       0.50958    0.72400    0.08136    1.000
    N3700    N        0.58410    0.65154    0.08521    1.000
    Si3701   Si       0.57943    0.72422    0.05745    1.000
    N3702    N        0.60672    0.71419    0.08984    1.000
    Si3703   Si       0.61441    0.67467    0.10923    1.000
    Si3704   Si       0.66922    0.71327    0.07486    1.000
    N3705    N        0.73155    0.65416    0.05840    1.000
    N3706    N        0.71331    0.71802    0.07728    1.000
    N3707    N        0.65798    0.67845    0.10010    1.000
    Si3708   Si       0.57393    0.57632    0.15418    1.000
    N3709    N        0.57348    0.61998    0.15806    1.000
    Si3710   Si       0.60669    0.52732    0.12691    1.000
    N3711    N        0.59879    0.54425    0.16725    1.000
    N3712    N        0.50365    0.63281    0.14242    1.000
    N3713    N        0.53455    0.57394    0.17057    1.000
    Si3714   Si       0.67309    0.51080    0.16016    1.000
    N3715    N        0.71146    0.53106    0.15659    1.000
    N3716    N        0.62758    0.62635    0.12048    1.000
    N3717    N        0.64652    0.50918    0.12480    1.000
    Si3718   Si       0.52968    0.73074    0.15135    1.000
    N3719    N        0.50494    0.71030    0.12131    1.000
    N3720    N        0.61312    0.67994    0.15295    1.000
    N3721    N        0.55026    0.70050    0.17377    1.000
    Si3722   Si       0.73316    0.66880    0.15490    1.000
    N3723    N        0.69608    0.64586    0.14757    1.000
    Si3724   Si       0.61288    0.63663    0.15988    1.000
    Si3725   Si       0.66862    0.64017    0.11467    1.000
    Si3726   Si       0.53218    0.53561    0.19338    1.000
    N3727    N        0.61131    0.57624    0.23291    1.000
    Si3728   Si       0.53207    0.61646    0.16998    1.000
    N3729    N        0.62573    0.50841    0.23092    1.000
    N3730    N        0.71578    0.59323    0.18880    1.000
    N3731    N        0.66098    0.54487    0.18619    1.000
    Si3732   Si       0.62165    0.54349    0.20482    1.000
    Si3733   Si       0.70243    0.55375    0.19167    1.000
    N3734    N        0.64355    0.62227    0.18929    1.000
    Si3735   Si       0.68785    0.62643    0.18483    1.000
    Si3736   Si       0.63510    0.61232    0.23126    1.000
    N3737    N        0.58746    0.70429    0.22836    1.000
    N3738    N        0.52813    0.64052    0.20696    1.000
    Si3739   Si       0.59238    0.70445    0.18347    1.000
    Si3740   Si       0.51936    0.68376    0.20017    1.000
    N3741    N        0.61203    0.74422    0.18046    1.000
    N3742    N        0.51209    0.75481    0.18225    1.000
    Si3743   Si       0.64896    0.74661    0.20435    1.000
    N3744    N        0.65587    0.70489    0.21918    1.000
    N3745    N        0.71865    0.70179    0.18144    1.000
    Si3746   Si       0.69783    0.69162    0.21800    1.000
    N3747    N        0.69522    0.64991    0.21937    1.000
    Si3748   Si       0.72273    0.74458    0.17945    1.000
    N3749    N        0.56142    0.60929    0.26540    1.000
    Si3750   Si       0.57485    0.56814    0.25459    1.000
    Si3751   Si       0.52411    0.62129    0.24483    1.000
    N3752    N        0.58485    0.53541    0.28381    1.000
    N3753    N        0.49139    0.59185    0.23725    1.000
    N3754    N        0.55057    0.53980    0.23101    1.000
    N3755    N        0.66979    0.60100    0.25650    1.000
    Si3756   Si       0.68361    0.56403    0.26927    1.000
    N3757    N        0.65376    0.53624    0.28672    1.000
    Si3758   Si       0.70591    0.62731    0.25439    1.000
    N3759    N        0.70313    0.54557    0.23542    1.000
    N3760    N        0.72448    0.50722    0.28765    1.000
    Si3761   Si       0.73602    0.51801    0.24676    1.000
    N3762    N        0.49628    0.64283    0.27017    1.000
    N3763    N        0.56972    0.74976    0.27716    1.000
    N3764    N        0.51566    0.70530    0.23689    1.000
    N3765    N        0.55644    0.67540    0.28323    1.000
    Si3766   Si       0.58579    0.64429    0.28027    1.000
    Si3767   Si       0.55386    0.71237    0.25679    1.000
    N3768    N        0.71537    0.70219    0.25592    1.000
    N3769    N        0.61636    0.64774    0.25032    1.000
    N3770    N        0.63488    0.71404    0.28193    1.000
    Si3771   Si       0.62592    0.68911    0.24644    1.000
    Si3772   Si       0.66321    0.74882    0.27954    1.000
    N3773    N        0.60845    0.58345    0.32711    1.000
    Si3774   Si       0.61653    0.54511    0.31048    1.000
    Si3775   Si       0.62914    0.62060    0.33338    1.000
    Si3776   Si       0.71049    0.61290    0.32405    1.000
    N3777    N        0.67029    0.61351    0.34114    1.000
    Si3778   Si       0.72292    0.53738    0.31950    1.000
    N3779    N        0.71625    0.57626    0.29948    1.000
    N3780    N        0.62834    0.51996    0.34450    1.000
    N3781    N        0.51112    0.64642    0.33762    1.000
    N3782    N        0.59785    0.71909    0.33429    1.000
    Si3783   Si       0.51588    0.66797    0.29946    1.000
    Si3784   Si       0.60465    0.74306    0.30024    1.000
    Si3785   Si       0.49075    0.72022    0.33823    1.000
    N3786    N        0.49024    0.70223    0.29957    1.000
    N3787    N        0.53019    0.73172    0.35031    1.000
    N3788    N        0.61365    0.65488    0.31374    1.000
    Si3789   Si       0.71386    0.68970    0.29805    1.000
    N3790    N        0.71147    0.64513    0.29326    1.000
    N3791    N        0.67887    0.70117    0.32220    1.000
    Si3792   Si       0.63422    0.69208    0.32450    1.000
    N3793    N        0.55292    0.60821    0.36778    1.000
    Si3794   Si       0.58974    0.58431    0.36794    1.000
    Si3795   Si       0.52743    0.57520    0.37498    1.000
    N3796    N        0.55632    0.54733    0.35987    1.000
    N3797    N        0.48736    0.58267    0.36118    1.000
    N3798    N        0.62119    0.62007    0.37678    1.000
    Si3799   Si       0.66430    0.60844    0.38376    1.000
    Si3800   Si       0.66045    0.53076    0.37203    1.000
    N3801    N        0.66096    0.56857    0.39455    1.000
    N3802    N        0.70249    0.52827    0.35650    1.000
    N3803    N        0.73369    0.60663    0.36074    1.000
    Si3804   Si       0.71616    0.51026    0.39792    1.000
    Si3805   Si       0.53443    0.64670    0.37456    1.000
    Si3806   Si       0.56747    0.71799    0.36547    1.000
    N3807    N        0.56642    0.67580    0.37590    1.000
    N3808    N        0.58447    0.73865    0.40084    1.000
    Si3809   Si       0.60912    0.66268    0.38693    1.000
    N3810    N        0.68987    0.74035    0.38315    1.000
    Si3811   Si       0.73044    0.75613    0.37835    1.000
    N3812    N        0.64168    0.68240    0.36934    1.000
    Si3813   Si       0.72687    0.63693    0.39064    1.000
    Si3814   Si       0.68116    0.70069    0.36658    1.000
    N3815    N        0.71615    0.67283    0.36882    1.000
    Si3816   Si       0.66020    0.76129    0.40404    1.000
    Si3817   Si       0.56642    0.54356    0.42564    1.000
    N3818    N        0.52717    0.56118    0.41718    1.000
    Si3819   Si       0.49839    0.62666    0.45064    1.000
    N3820    N        0.59809    0.56370    0.40617    1.000
    N3821    N        0.63899    0.60978    0.45009    1.000
    Si3822   Si       0.63335    0.57126    0.42925    1.000
    N3823    N        0.63979    0.53932    0.45586    1.000
    Si3824   Si       0.68184    0.62439    0.45297    1.000
    N3825    N        0.69237    0.62490    0.41167    1.000
    Si3826   Si       0.66648    0.50645    0.44783    1.000
    Si3827   Si       0.60361    0.71628    0.43296    1.000
    N3828    N        0.51711    0.64089    0.41344    1.000
    N3829    N        0.61043    0.67369    0.42816    1.000
    Si3830   Si       0.62560    0.64866    0.46046    1.000
    N3831    N        0.64358    0.73730    0.43666    1.000
    N3832    N        0.52047    0.60440    0.48219    1.000
    Si3833   Si       0.60618    0.53980    0.48596    1.000
    Si3834   Si       0.52941    0.56196    0.48351    1.000
    N3835    N        0.56687    0.54593    0.46875    1.000
    Si3836   Si       0.52504    0.60629    0.52454    1.000
    N3837    N        0.61249    0.56126    0.52255    1.000
    N3838    N        0.48887    0.54202    0.47766    1.000
    N3839    N        0.73057    0.54552    0.49132    1.000
    N3840    N        0.67137    0.51776    0.51631    1.000
    Si3841   Si       0.72056    0.58421    0.50547    1.000
    N3842    N        0.71774    0.61298    0.47415    1.000
    Si3843   Si       0.71502    0.51098    0.51555    1.000
    N3844    N        0.68129    0.58747    0.52502    1.000
    Si3845   Si       0.49070    0.70207    0.48563    1.000
    Si3846   Si       0.57570    0.68948    0.49882    1.000
    N3847    N        0.53538    0.70525    0.48952    1.000
    N3848    N        0.59462    0.72113    0.47545    1.000
    N3849    N        0.59716    0.65159    0.49219    1.000
    Si3850   Si       0.55630    0.74358    0.48406    1.000
    N3851    N        0.73519    0.67957    0.48744    1.000
    N3852    N        0.66749    0.65964    0.47277    1.000
    Si3853   Si       0.63782    0.73953    0.47972    1.000
    N3854    N        0.66388    0.71737    0.50916    1.000
    Si3855   Si       0.69138    0.68062    0.49997    1.000
    Si3856   Si       0.53105    0.52523    0.54749    1.000
    N3857    N        0.57026    0.52406    0.56697    1.000
    Si3858   Si       0.58160    0.56363    0.55297    1.000
    N3859    N        0.55797    0.62453    0.54419    1.000
    N3860    N        0.49595    0.53813    0.57214    1.000
    N3861    N        0.54162    0.56479    0.52670    1.000
    Si3862   Si       0.49063    0.58241    0.58035    1.000
    Si3863   Si       0.65336    0.55550    0.53510    1.000
    Si3864   Si       0.67577    0.62219    0.55082    1.000
    N3865    N        0.65182    0.54736    0.57776    1.000
    N3866    N        0.63374    0.63295    0.55073    1.000
    N3867    N        0.49846    0.75036    0.56652    1.000
    Si3868   Si       0.59637    0.64590    0.53551    1.000
    N3869    N        0.58719    0.68935    0.54066    1.000
    Si3870   Si       0.59185    0.71325    0.57533    1.000
    N3871    N        0.49937    0.68058    0.57063    1.000
    Si3872   Si       0.72500    0.75643    0.56193    1.000
    Si3873   Si       0.70910    0.68395    0.56771    1.000
    N3874    N        0.72922    0.71750    0.54573    1.000
    N3875    N        0.61691    0.74704    0.56232    1.000
    N3876    N        0.67385    0.70692    0.57934    1.000
    Si3877   Si       0.65688    0.73554    0.55068    1.000
    N3878    N        0.69621    0.65822    0.53780    1.000
    N3879    N        0.52201    0.59851    0.60594    1.000
    Si3880   Si       0.59965    0.59160    0.63097    1.000
    N3881    N        0.58547    0.58737    0.59063    1.000
    Si3882   Si       0.55369    0.61803    0.58569    1.000
    Si3883   Si       0.67066    0.57367    0.60756    1.000
    N3884    N        0.64273    0.59720    0.62965    1.000
    N3885    N        0.69090    0.55165    0.64138    1.000
    N3886    N        0.69093    0.60552    0.58736    1.000
    Si3887   Si       0.58386    0.66868    0.63254    1.000
    N3888    N        0.55465    0.66002    0.60325    1.000
    Si3889   Si       0.52638    0.69390    0.60244    1.000
    N3890    N        0.55468    0.72510    0.59441    1.000
    N3891    N        0.49895    0.70650    0.63471    1.000
    N3892    N        0.61297    0.69095    0.60872    1.000
    Si3893   Si       0.71452    0.74110    0.64161    1.000
    Si3894   Si       0.65553    0.69987    0.61743    1.000
    Si3895   Si       0.71672    0.66444    0.63882    1.000
    N3896    N        0.73539    0.75359    0.60472    1.000
    N3897    N        0.67451    0.66400    0.63126    1.000
    N3898    N        0.73255    0.66823    0.59974    1.000
    N3899    N        0.66976    0.73384    0.64053    1.000
    N3900    N        0.52727    0.61669    0.67747    1.000
    Si3901   Si       0.56836    0.52711    0.67091    1.000
    Si3902   Si       0.56864    0.60466    0.68209    1.000
    N3903    N        0.57925    0.56688    0.65981    1.000
    N3904    N        0.58949    0.62933    0.64969    1.000
    Si3905   Si       0.50146    0.60530    0.64379    1.000
    N3906    N        0.49318    0.56578    0.65845    1.000
    Si3907   Si       0.49957    0.55495    0.69860    1.000
    N3908    N        0.73620    0.56572    0.68815    1.000
    N3909    N        0.68562    0.60977    0.68292    1.000
    Si3910   Si       0.69329    0.56781    0.68076    1.000
    Si3911   Si       0.65821    0.63111    0.65653    1.000
    N3912    N        0.56522    0.69358    0.66218    1.000
    Si3913   Si       0.57757    0.73092    0.68182    1.000
    N3914    N        0.50594    0.67218    0.69696    1.000
    Si3915   Si       0.54785    0.68203    0.70252    1.000
    N3916    N        0.72801    0.70382    0.65784    1.000
    N3917    N        0.64686    0.65607    0.68984    1.000
    N3918    N        0.62025    0.72340    0.69030    1.000
    Si3919   Si       0.64886    0.75059    0.67493    1.000
    N3920    N        0.57344    0.59300    0.72427    1.000
    Si3921   Si       0.56934    0.54902    0.73569    1.000
    N3922    N        0.49597    0.58689    0.72804    1.000
    Si3923   Si       0.50527    0.62991    0.71195    1.000
    N3924    N        0.60960    0.54987    0.75523    1.000
    Si3925   Si       0.57493    0.63227    0.74912    1.000
    N3926    N        0.53891    0.53429    0.70267    1.000
    N3927    N        0.64958    0.61235    0.74266    1.000
    Si3928   Si       0.64663    0.57027    0.74228    1.000
    N3929    N        0.66056    0.55031    0.70398    1.000
    N3930    N        0.53018    0.63356    0.74835    1.000
    N3931    N        0.55872    0.72067    0.72011    1.000
    N3932    N        0.58256    0.66010    0.71756    1.000
    Si3933   Si       0.57043    0.75188    0.74720    1.000
    N3934    N        0.61378    0.75888    0.75552    1.000
    N3935    N        0.67368    0.75050    0.71373    1.000
    Si3936   Si       0.67518    0.63555    0.71645    1.000
    N3937    N        0.70180    0.65877    0.73999    1.000
    N3938    N        0.64054    0.69045    0.74540    1.000
    Si3939   Si       0.64492    0.73347    0.74315    1.000
    Si3940   Si       0.61850    0.68235    0.70883    1.000
    N3941    N        0.54579    0.60419    0.80224    1.000
    Si3942   Si       0.52001    0.58864    0.76566    1.000
    N3943    N        0.53825    0.54938    0.76579    1.000
    N3944    N        0.58129    0.50846    0.80680    1.000
    Si3945   Si       0.61524    0.51215    0.77680    1.000
    Si3946   Si       0.66911    0.55349    0.80814    1.000
    N3947    N        0.65085    0.59405    0.81127    1.000
    N3948    N        0.64618    0.51683    0.80762    1.000
    Si3949   Si       0.64012    0.62738    0.78327    1.000
    N3950    N        0.68047    0.55804    0.76549    1.000
    Si3951   Si       0.71371    0.53052    0.76693    1.000
    N3952    N        0.71204    0.53448    0.81599    1.000
    N3953    N        0.60035    0.64079    0.78206    1.000
    Si3954   Si       0.52017    0.64096    0.79419    1.000
    N3955    N        0.54545    0.74901    0.78259    1.000
    N3956    N        0.54601    0.67533    0.79329    1.000
    Si3957   Si       0.54844    0.71533    0.81204    1.000
    Si3958   Si       0.68004    0.75939    0.80619    1.000
    Si3959   Si       0.67967    0.68518    0.76891    1.000
    N3960    N        0.73223    0.70082    0.77906    1.000
    N3961    N        0.67117    0.65455    0.79980    1.000
    N3962    N        0.67057    0.72773    0.77982    1.000
    N3963    N        0.59536    0.56938    0.84292    1.000
    Si3964   Si       0.58885    0.52593    0.84499    1.000
    Si3965   Si       0.56119    0.59641    0.84268    1.000
    N3966    N        0.52537    0.58321    0.86404    1.000
    N3967    N        0.55504    0.51831    0.87197    1.000
    Si3968   Si       0.49529    0.61343    0.86115    1.000
    N3969    N        0.71440    0.59607    0.83627    1.000
    Si3970   Si       0.63328    0.58675    0.85558    1.000
    N3971    N        0.66419    0.55100    0.85502    1.000
    Si3972   Si       0.70761    0.55877    0.86021    1.000
    N3973    N        0.66109    0.62585    0.86537    1.000
    N3974    N        0.61555    0.50595    0.87145    1.000
    N3975    N        0.57776    0.63375    0.85406    1.000
    Si3976   Si       0.60349    0.70850    0.87231    1.000
    N3977    N        0.51014    0.71795    0.83414    1.000
    N3978    N        0.58630    0.70306    0.83210    1.000
    N3979    N        0.49765    0.64620    0.83103    1.000
    Si3980   Si       0.58067    0.65986    0.81847    1.000
    N3981    N        0.66222    0.75927    0.84667    1.000
    N3982    N        0.72559    0.65719    0.84456    1.000
    Si3983   Si       0.68762    0.63049    0.83213    1.000
    N3984    N        0.56890    0.60948    0.91713    1.000
    N3985    N        0.52560    0.55892    0.93035    1.000
    Si3986   Si       0.52275    0.54600    0.88834    1.000
    Si3987   Si       0.52788    0.60255    0.92745    1.000
    N3988    N        0.49894    0.62657    0.90343    1.000
    Si3989   Si       0.59766    0.58000    0.93210    1.000
    N3990    N        0.58804    0.53551    0.93472    1.000
    N3991    N        0.49020    0.51941    0.87948    1.000
    N3992    N        0.62909    0.57711    0.90263    1.000
    N3993    N        0.69912    0.56167    0.90653    1.000
    Si3994   Si       0.65814    0.54538    0.90120    1.000
    N3995    N        0.65412    0.52565    0.94218    1.000
    Si3996   Si       0.49495    0.75505    0.90400    1.000
    Si3997   Si       0.58484    0.64463    0.89720    1.000
    N3998    N        0.53551    0.74023    0.91012    1.000
    N3999    N        0.57540    0.68647    0.89969    1.000
    Si4000   Si       0.56076    0.70996    0.93171    1.000
    N4001    N        0.60081    0.75320    0.87674    1.000
    N4002    N        0.71611    0.71996    0.87962    1.000
    Si4003   Si       0.73007    0.67778    0.88338    1.000
    N4004    N        0.64535    0.69735    0.87628    1.000
    N4005    N        0.69692    0.66368    0.91084    1.000
    N4006    N        0.66454    0.75550    0.91368    1.000
    Si4007   Si       0.65779    0.65947    0.89233    1.000
    N4008    N        0.62559    0.64740    0.92040    1.000
    Si4009   Si       0.67274    0.73038    0.87737    1.000
    N4010    N        0.51975    0.62084    0.96672    1.000
    Si4011   Si       0.54138    0.52618    0.95442    1.000
    N4012    N        0.57116    0.51107    0.98834    1.000
    N4013    N        0.51309    0.52994    0.99197    1.000
    N4014    N        0.61358    0.59782    0.97056    1.000
    Si4015   Si       0.61746    0.52006    0.96522    1.000
    Si4016   Si       0.69847    0.61406    0.98841    1.000
    N4017    N        0.72471    0.51771    0.95281    1.000
    N4018    N        0.69970    0.57174    0.97580    1.000
    Si4019   Si       0.70368    0.53203    0.99396    1.000
    Si4020   Si       0.72383    0.56081    0.94131    1.000
    N4021    N        0.58718    0.74181    0.94602    1.000
    Si4022   Si       0.50709    0.66504    0.97004    1.000
    N4023    N        0.54666    0.68367    0.96503    1.000
    Si4024   Si       0.60804    0.73798    0.98497    1.000
    N4025    N        0.61249    0.66202    0.98852    1.000
    N4026    N        0.67263    0.64823    0.97495    1.000
    Si4027   Si       0.70706    0.66715    0.95372    1.000
    Si4028   Si       0.63320    0.63620    0.96108    1.000
    N4029    N        0.73133    0.63202    0.96458    1.000
    Si4030   Si       0.67735    0.74080    0.95458    1.000
    N4031    N        0.71119    0.71055    0.96247    1.000
    N4032    N        0.64546    0.71750    0.97412    1.000
    N4033    N        0.54744    0.80036    0.02126    1.000
    Si4034   Si       0.58920    0.79250    0.03538    1.000
    Si4035   Si       0.51205    0.78413    0.03680    1.000
    N4036    N        0.60108    0.83139    0.05032    1.000
    N4037    N        0.49288    0.75969    0.00838    1.000
    N4038    N        0.53215    0.86736    0.05411    1.000
    N4039    N        0.61166    0.77651    0.00239    1.000
    N4040    N        0.63715    0.84391    0.99983    1.000
    N4041    N        0.67482    0.80487    0.03194    1.000
    Si4042   Si       0.64373    0.83723    0.04615    1.000
    Si4043   Si       0.70761    0.79557    0.00482    1.000
    N4044    N        0.65405    0.87981    0.04960    1.000
    N4045    N        0.73495    0.76195    0.00839    1.000
    N4046    N        0.73633    0.82808    0.99819    1.000
    N4047    N        0.49377    0.97493    0.03214    1.000
    Si4048   Si       0.51300    0.88617    0.02024    1.000
    Si4049   Si       0.59855    0.00018    0.01922    1.000
    N4050    N        0.58550    0.89141    0.02320    1.000
    N4051    N        0.59494    0.95749    0.00720    1.000
    Si4052   Si       0.56516    0.93033    0.02366    1.000
    Si4053   Si       0.71616    0.99371    0.03310    1.000
    N4054    N        0.66294    0.93387    0.01279    1.000
    N4055    N        0.71793    0.88332    0.03147    1.000
    Si4056   Si       0.65620    0.95907    0.04542    1.000
    Si4057   Si       0.67881    0.89455    0.01496    1.000
    N4058    N        0.64041    0.99950    0.03520    1.000
    Si4059   Si       0.55446    0.78193    0.09642    1.000
    Si4060   Si       0.50937    0.83914    0.07822    1.000
    N4061    N        0.58418    0.76610    0.06835    1.000
    N4062    N        0.54274    0.82244    0.10289    1.000
    N4063    N        0.51972    0.76516    0.07525    1.000
    Si4064   Si       0.57446    0.86566    0.05798    1.000
    Si4065   Si       0.68027    0.79001    0.07164    1.000
    N4066    N        0.72708    0.87238    0.10156    1.000
    N4067    N        0.65955    0.82755    0.08775    1.000
    N4068    N        0.71763    0.80312    0.09246    1.000
    Si4069   Si       0.69850    0.83895    0.10917    1.000
    Si4070   Si       0.61756    0.75682    0.09461    1.000
    N4071    N        0.65687    0.75439    0.07610    1.000
    N4072    N        0.59499    0.88434    0.09111    1.000
    N4073    N        0.51118    0.99300    0.09415    1.000
    Si4074   Si       0.55349    0.98414    0.08125    1.000
    N4075    N        0.49524    0.92624    0.10214    1.000
    Si4076   Si       0.50502    0.94084    0.06200    1.000
    N4077    N        0.54780    0.94539    0.06094    1.000
    N4078    N        0.58916    0.98684    0.11029    1.000
    Si4079   Si       0.63688    0.89934    0.08355    1.000
    N4080    N        0.69347    0.97381    0.06442    1.000
    Si4081   Si       0.69039    0.98894    0.10800    1.000
    N4082    N        0.62943    0.94064    0.07484    1.000
    Si4083   Si       0.61734    0.95599    0.11426    1.000
    Si4084   Si       0.59195    0.77515    0.15733    1.000
    Si4085   Si       0.52446    0.84436    0.13767    1.000
    N4086    N        0.51301    0.81656    0.16758    1.000
    N4087    N        0.61291    0.85361    0.14657    1.000
    N4088    N        0.55906    0.75830    0.13333    1.000
    N4089    N        0.61860    0.78738    0.12686    1.000
    Si4090   Si       0.63854    0.82688    0.12689    1.000
    N4091    N        0.67986    0.82564    0.14588    1.000
    N4092    N        0.73900    0.75402    0.14059    1.000
    N4093    N        0.54387    0.88285    0.14194    1.000
    Si4094   Si       0.58647    0.88520    0.13515    1.000
    N4095    N        0.52666    0.95755    0.15389    1.000
    Si4096   Si       0.51729    0.91541    0.13946    1.000
    Si4097   Si       0.49888    0.98541    0.13305    1.000
    N4098    N        0.60210    0.92449    0.14245    1.000
    N4099    N        0.48817    0.89752    0.17027    1.000
    Si4100   Si       0.73692    0.89814    0.13505    1.000
    Si4101   Si       0.67171    0.92962    0.14611    1.000
    N4102    N        0.66348    0.89970    0.11685    1.000
    N4103    N        0.71454    0.93123    0.15124    1.000
    N4104    N        0.65799    0.96669    0.12745    1.000
    N4105    N        0.72927    0.99158    0.12682    1.000
    Si4106   Si       0.53994    0.81101    0.20140    1.000
    N4107    N        0.58150    0.80667    0.18391    1.000
    N4108    N        0.53784    0.85473    0.21141    1.000
    Si4109   Si       0.60878    0.84171    0.18939    1.000
    Si4110   Si       0.68761    0.81011    0.18514    1.000
    N4111    N        0.64786    0.82329    0.20355    1.000
    N4112    N        0.68418    0.76520    0.18516    1.000
    N4113    N        0.72844    0.82191    0.19861    1.000
    N4114    N        0.59981    0.88280    0.20429    1.000
    Si4115   Si       0.50435    0.88230    0.20792    1.000
    N4116    N        0.58783    0.95210    0.20189    1.000
    N4117    N        0.53053    0.98082    0.21643    1.000
    Si4118   Si       0.55466    0.97273    0.18222    1.000
    Si4119   Si       0.49861    0.00762    0.20787    1.000
    Si4120   Si       0.61296    0.92166    0.18537    1.000
    Si4121   Si       0.67005    0.95836    0.21791    1.000
    N4122    N        0.69593    0.99607    0.20684    1.000
    Si4123   Si       0.73053    0.97749    0.22267    1.000
    N4124    N        0.65483    0.93105    0.18769    1.000
    N4125    N        0.59428    0.81506    0.25337    1.000
    Si4126   Si       0.56103    0.79197    0.26913    1.000
    N4127    N        0.52686    0.79298    0.23902    1.000
    Si4128   Si       0.60716    0.84600    0.28290    1.000
    N4129    N        0.58605    0.88256    0.27284    1.000
    N4130    N        0.64965    0.84133    0.27154    1.000
    Si4131   Si       0.63548    0.80932    0.24211    1.000
    N4132    N        0.64696    0.76723    0.24277    1.000
    N4133    N        0.73339    0.87577    0.23991    1.000
    N4134    N        0.72120    0.82405    0.28641    1.000
    N4135    N        0.70433    0.75827    0.28242    1.000
    Si4136   Si       0.56778    0.88351    0.23138    1.000
    Si4137   Si       0.53447    0.94998    0.24753    1.000
    Si4138   Si       0.50231    0.90021    0.26920    1.000
    N4139    N        0.50196    0.94226    0.27592    1.000
    Si4140   Si       0.59912    0.97013    0.23910    1.000
    N4141    N        0.57351    0.95091    0.26886    1.000
    N4142    N        0.53211    0.90817    0.23458    1.000
    N4143    N        0.64071    0.96138    0.24949    1.000
    N4144    N        0.70632    0.94122    0.23666    1.000
    Si4145   Si       0.71977    0.90966    0.26193    1.000
    Si4146   Si       0.64657    0.95891    0.29257    1.000
    N4147    N        0.60495    0.83046    0.32423    1.000
    Si4148   Si       0.56520    0.82234    0.33817    1.000
    N4149    N        0.54682    0.81827    0.29999    1.000
    Si4150   Si       0.50651    0.83328    0.30738    1.000
    N4151    N        0.49930    0.87510    0.30476    1.000
    N4152    N        0.63670    0.77198    0.30782    1.000
    N4153    N        0.67320    0.83249    0.33686    1.000
    Si4154   Si       0.63955    0.80547    0.33640    1.000
    Si4155   Si       0.73084    0.78408    0.30209    1.000
    Si4156   Si       0.68499    0.84585    0.29642    1.000
    N4157    N        0.73444    0.78365    0.34437    1.000
    Si4158   Si       0.49155    0.96285    0.31118    1.000
    N4159    N        0.55634    0.92334    0.33033    1.000
    N4160    N        0.52327    0.98737    0.32641    1.000
    Si4161   Si       0.58608    0.92104    0.29558    1.000
    N4162    N        0.62489    0.99488    0.30433    1.000
    Si4163   Si       0.70176    0.91662    0.32739    1.000
    N4164    N        0.68214    0.95329    0.31669    1.000
    N4165    N        0.62497    0.92625    0.31239    1.000
    N4166    N        0.70099    0.88799    0.29318    1.000
    Si4167   Si       0.51471    0.84529    0.37805    1.000
    Si4168   Si       0.59276    0.78041    0.39115    1.000
    N4169    N        0.55887    0.78923    0.36562    1.000
    Si4170   Si       0.51520    0.77256    0.36089    1.000
    N4171    N        0.55153    0.85946    0.35915    1.000
    N4172    N        0.50311    0.76310    0.40239    1.000
    N4173    N        0.49968    0.81630    0.34831    1.000
    N4174    N        0.64373    0.85229    0.39721    1.000
    Si4175   Si       0.67972    0.85840    0.37146    1.000
    N4176    N        0.63364    0.78232    0.37536    1.000
    N4177    N        0.71673    0.84522    0.39179    1.000
    N4178    N        0.50038    0.97922    0.38703    1.000
    Si4179   Si       0.56598    0.89877    0.36603    1.000
    N4180    N        0.53728    0.92081    0.38978    1.000
    N4181    N        0.57112    0.97891    0.36803    1.000
    N4182    N        0.60683    0.90588    0.37665    1.000
    Si4183   Si       0.53269    0.95314    0.35915    1.000
    Si4184   Si       0.60828    0.98370    0.39297    1.000
    Si4185   Si       0.63938    0.92329    0.35443    1.000
    N4186    N        0.70978    0.97113    0.37846    1.000
    Si4187   Si       0.73497    0.93743    0.38448    1.000
    N4188    N        0.67488    0.90004    0.35738    1.000
    N4189    N        0.64152    0.96566    0.37115    1.000
    Si4190   Si       0.67699    0.98093    0.34992    1.000
    Si4191   Si       0.50836    0.79241    0.43470    1.000
    Si4192   Si       0.56415    0.84214    0.43716    1.000
    N4193    N        0.59436    0.81165    0.42361    1.000
    N4194    N        0.52614    0.82991    0.41689    1.000
    N4195    N        0.53479    0.77426    0.46466    1.000
    N4196    N        0.57804    0.88291    0.42852    1.000
    N4197    N        0.70800    0.85582    0.45159    1.000
    Si4198   Si       0.63928    0.81987    0.42606    1.000
    N4199    N        0.67535    0.79762    0.42354    1.000
    Si4200   Si       0.71248    0.81610    0.42804    1.000
    Si4201   Si       0.73459    0.87602    0.42049    1.000
    Si4202   Si       0.66954    0.87539    0.46551    1.000
    N4203    N        0.73333    0.80291    0.46603    1.000
    Si4204   Si       0.50434    0.98392    0.43185    1.000
    Si4205   Si       0.55098    0.91956    0.43144    1.000
    N4206    N        0.54222    0.96506    0.43854    1.000
    Si4207   Si       0.57673    0.97937    0.46280    1.000
    N4208    N        0.60807    0.96468    0.43444    1.000
    N4209    N        0.52749    0.90669    0.46493    1.000
    N4210    N        0.71822    0.91542    0.41986    1.000
    Si4211   Si       0.70961    0.93138    0.45906    1.000
    N4212    N        0.64867    0.90532    0.44077    1.000
    Si4213   Si       0.62149    0.88565    0.41254    1.000
    Si4214   Si       0.64209    0.94628    0.45396    1.000
    Si4215   Si       0.68825    0.00616    0.45748    1.000
    N4216    N        0.68241    0.96454    0.45380    1.000
    Si4217   Si       0.54349    0.80305    0.49933    1.000
    N4218    N        0.54954    0.83944    0.47800    1.000
    Si4219   Si       0.52399    0.87287    0.49194    1.000
    N4220    N        0.56684    0.76868    0.51840    1.000
    N4221    N        0.68601    0.82598    0.51088    1.000
    Si4222   Si       0.64338    0.82194    0.50296    1.000
    Si4223   Si       0.72184    0.83612    0.48952    1.000
    N4224    N        0.64070    0.77988    0.48889    1.000
    N4225    N        0.64160    0.84287    0.46342    1.000
    N4226    N        0.57197    0.95234    0.49716    1.000
    N4227    N        0.50715    0.95960    0.51885    1.000
    Si4228   Si       0.53526    0.93220    0.49944    1.000
    Si4229   Si       0.60454    0.95384    0.52450    1.000
    N4230    N        0.54008    0.89484    0.52493    1.000
    N4231    N        0.63616    0.94009    0.49698    1.000
    Si4232   Si       0.73275    0.90304    0.51102    1.000
    Si4233   Si       0.66156    0.91344    0.52191    1.000
    N4234    N        0.69219    0.90402    0.49238    1.000
    N4235    N        0.57752    0.86177    0.57157    1.000
    Si4236   Si       0.59349    0.78174    0.54879    1.000
    N4237    N        0.56367    0.79281    0.58014    1.000
    N4238    N        0.51175    0.80843    0.52682    1.000
    N4239    N        0.61440    0.81794    0.53639    1.000
    Si4240   Si       0.61754    0.85522    0.55689    1.000
    Si4241   Si       0.70119    0.80975    0.54844    1.000
    N4242    N        0.68217    0.77146    0.55518    1.000
    N4243    N        0.70316    0.84277    0.57368    1.000
    Si4244   Si       0.72431    0.87858    0.58094    1.000
    N4245    N        0.74146    0.79362    0.54299    1.000
    N4246    N        0.63860    0.87613    0.52449    1.000
    Si4247   Si       0.51380    0.99419    0.54606    1.000
    N4248    N        0.59176    0.93148    0.56241    1.000
    Si4249   Si       0.56089    0.90023    0.56330    1.000
    N4250    N        0.50618    0.97765    0.58461    1.000
    N4251    N        0.61538    0.99404    0.53230    1.000
    N4252    N        0.67860    0.00143    0.56068    1.000
    N4253    N        0.66472    0.93206    0.55903    1.000
    Si4254   Si       0.67338    0.96416    0.58589    1.000
    N4255    N        0.73501    0.91069    0.55339    1.000
    N4256    N        0.51342    0.77730    0.62678    1.000
    N4257    N        0.52379    0.84003    0.60526    1.000
    N4258    N        0.59177    0.83282    0.63442    1.000
    Si4259   Si       0.56482    0.83082    0.59973    1.000
    Si4260   Si       0.50206    0.87815    0.59707    1.000
    Si4261   Si       0.53403    0.76366    0.59205    1.000
    Si4262   Si       0.50474    0.82045    0.63718    1.000
    Si4263   Si       0.61875    0.86995    0.63040    1.000
    N4264    N        0.63900    0.85915    0.59415    1.000
    Si4265   Si       0.67881    0.85104    0.61050    1.000
    N4266    N        0.69616    0.82031    0.63685    1.000
    Si4267   Si       0.52771    0.95003    0.60979    1.000
    N4268    N        0.56603    0.97006    0.61828    1.000
    N4269    N        0.60294    0.91074    0.62821    1.000
    Si4270   Si       0.59953    0.94567    0.60155    1.000
    N4271    N        0.53152    0.91036    0.59297    1.000
    N4272    N        0.69945    0.88965    0.61430    1.000
    Si4273   Si       0.70944    0.92367    0.63834    1.000
    N4274    N        0.63443    0.97283    0.60445    1.000
    N4275    N        0.70505    0.95853    0.61401    1.000
    N4276    N        0.52670    0.82687    0.67468    1.000
    Si4277   Si       0.59642    0.80344    0.66706    1.000
    N4278    N        0.56915    0.77113    0.67338    1.000
    Si4279   Si       0.55450    0.85769    0.69121    1.000
    Si4280   Si       0.53345    0.78775    0.69273    1.000
    N4281    N        0.50169    0.75877    0.69082    1.000
    N4282    N        0.63670    0.79168    0.66983    1.000
    Si4283   Si       0.66862    0.82191    0.67117    1.000
    N4284    N        0.65049    0.86096    0.65915    1.000
    N4285    N        0.72408    0.77224    0.67034    1.000
    Si4286   Si       0.73741    0.80931    0.65045    1.000
    Si4287   Si       0.58899    0.92192    0.66899    1.000
    Si4288   Si       0.51307    0.90828    0.66546    1.000
    N4289    N        0.57735    0.96209    0.68343    1.000
    Si4290   Si       0.56817    0.99474    0.65434    1.000
    N4291    N        0.55395    0.89608    0.66984    1.000
    Si4292   Si       0.49487    0.98552    0.67154    1.000
    N4293    N        0.50832    0.94964    0.64928    1.000
    N4294    N        0.49240    0.90755    0.70313    1.000
    Si4295   Si       0.65731    0.89336    0.68746    1.000
    N4296    N        0.62505    0.92115    0.69158    1.000
    N4297    N        0.69130    0.91708    0.67621    1.000
    Si4298   Si       0.56681    0.82769    0.74270    1.000
    N4299    N        0.54934    0.78866    0.73477    1.000
    N4300    N        0.54473    0.86465    0.73215    1.000
    N4301    N        0.58648    0.83043    0.70244    1.000
    Si4302   Si       0.70003    0.85794    0.72809    1.000
    N4303    N        0.65725    0.87121    0.72513    1.000
    Si4304   Si       0.70880    0.77642    0.71276    1.000
    Si4305   Si       0.62913    0.86414    0.75858    1.000
    N4306    N        0.74103    0.76658    0.74060    1.000
    N4307    N        0.69580    0.81907    0.70557    1.000
    Si4308   Si       0.49898    0.93795    0.73253    1.000
    Si4309   Si       0.56935    0.96637    0.72478    1.000
    N4310    N        0.54247    0.93555    0.73941    1.000
    Si4311   Si       0.55809    0.89778    0.75474    1.000
    N4312    N        0.60914    0.96066    0.74829    1.000
    N4313    N        0.64199    0.99571    0.70897    1.000
    Si4314   Si       0.71600    0.93211    0.70982    1.000
    Si4315   Si       0.62957    0.00106    0.75553    1.000
    Si4316   Si       0.64094    0.95320    0.71596    1.000
    N4317    N        0.72457    0.89397    0.73157    1.000
    N4318    N        0.67994    0.94300    0.73265    1.000
    N4319    N        0.54477    0.82479    0.78556    1.000
    Si4320   Si       0.51575    0.85441    0.79599    1.000
    Si4321   Si       0.52035    0.78537    0.77781    1.000
    Si4322   Si       0.58320    0.82573    0.80773    1.000
    N4323    N        0.60411    0.82986    0.76677    1.000
    Si4324   Si       0.62824    0.79305    0.77778    1.000
    Si4325   Si       0.69149    0.83077    0.79034    1.000
    N4326    N        0.67101    0.79521    0.77991    1.000
    N4327    N        0.65819    0.86010    0.78963    1.000
    N4328    N        0.72227    0.84208    0.76407    1.000
    N4329    N        0.72306    0.76070    0.81294    1.000
    Si4330   Si       0.57304    0.99028    0.81766    1.000
    N4331    N        0.57718    0.94667    0.81169    1.000
    N4332    N        0.53961    0.89198    0.79321    1.000
    Si4333   Si       0.60774    0.93300    0.78254    1.000
    N4334    N        0.53466    0.00412    0.80286    1.000
    N4335    N        0.60065    0.89643    0.76127    1.000
    N4336    N        0.64820    0.92816    0.79653    1.000
    Si4337   Si       0.68238    0.94931    0.77536    1.000
    N4338    N        0.66457    0.98969    0.77948    1.000
    Si4339   Si       0.65980    0.89382    0.81659    1.000
    N4340    N        0.71758    0.95379    0.79900    1.000
    N4341    N        0.58252    0.84732    0.84510    1.000
    N4342    N        0.50914    0.85854    0.83988    1.000
    Si4343   Si       0.54722    0.86618    0.86316    1.000
    Si4344   Si       0.49307    0.81838    0.85070    1.000
    N4345    N        0.49896    0.78964    0.81740    1.000
    N4346    N        0.60755    0.79043    0.81673    1.000
    Si4347   Si       0.61693    0.85289    0.86998    1.000
    Si4348   Si       0.62604    0.78032    0.85383    1.000
    Si4349   Si       0.71337    0.86242    0.85677    1.000
    N4350    N        0.70645    0.82683    0.83164    1.000
    Si4351   Si       0.73513    0.79498    0.83858    1.000
    N4352    N        0.63765    0.81466    0.87839    1.000
    N4353    N        0.54993    0.90956    0.86472    1.000
    N4354    N        0.49940    0.92820    0.82827    1.000
    N4355    N        0.58446    0.00230    0.85658    1.000
    Si4356   Si       0.54229    0.92400    0.82423    1.000
    N4357    N        0.64118    0.88691    0.85489    1.000
    N4358    N        0.70438    0.00219    0.84966    1.000
    N4359    N        0.70736    0.93910    0.87301    1.000
    N4360    N        0.70084    0.89373    0.82999    1.000
    Si4361   Si       0.72485    0.93095    0.83479    1.000
    Si4362   Si       0.52513    0.81513    0.91718    1.000
    N4363    N        0.56726    0.80347    0.91439    1.000
    N4364    N        0.53215    0.85562    0.90146    1.000
    N4365    N        0.50616    0.79437    0.88283    1.000
    N4366    N        0.60436    0.86686    0.90840    1.000
    Si4367   Si       0.59256    0.83408    0.93486    1.000
    Si4368   Si       0.57357    0.76257    0.90961    1.000
    Si4369   Si       0.49986    0.87927    0.91594    1.000
    Si4370   Si       0.65788    0.79880    0.91420    1.000
    N4371    N        0.69505    0.81747    0.92741    1.000
    N4372    N        0.69433    0.87576    0.89495    1.000
    Si4373   Si       0.70044    0.86020    0.93597    1.000
    N4374    N        0.73624    0.79262    0.88100    1.000
    N4375    N        0.73424    0.76512    0.93656    1.000
    N4376    N        0.58635    0.93919    0.92103    1.000
    N4377    N        0.51990    0.91513    0.92610    1.000
    Si4378   Si       0.54991    0.93354    0.90176    1.000
    N4379    N        0.53013    0.97423    0.89841    1.000
    Si4380   Si       0.61413    0.90457    0.92366    1.000
    Si4381   Si       0.49277    0.97745    0.91933    1.000
    Si4382   Si       0.55870    0.00577    0.89139    1.000
    Si4383   Si       0.73416    0.95438    0.90474    1.000
    Si4384   Si       0.68708    0.00106    0.89070    1.000
    N4385    N        0.70424    0.98294    0.92627    1.000
    Si4386   Si       0.67321    0.90918    0.87786    1.000
    N4387    N        0.64884    0.92470    0.90841    1.000
    N4388    N        0.64647    0.98927    0.88723    1.000
    Si4389   Si       0.62041    0.96943    0.91733    1.000
    N4390    N        0.51817    0.80091    0.95627    1.000
    N4391    N        0.57298    0.84661    0.97164    1.000
    Si4392   Si       0.53862    0.82498    0.98717    1.000
    Si4393   Si       0.60389    0.87004    0.99183    1.000
    N4394    N        0.50784    0.85483    0.99263    1.000
    Si4395   Si       0.64188    0.80333    0.98609    1.000
    N4396    N        0.67651    0.77713    0.97749    1.000
    N4397    N        0.62870    0.81110    0.94398    1.000
    Si4398   Si       0.73353    0.87067    0.99087    1.000
    N4399    N        0.69275    0.88073    0.97410    1.000
    Si4400   Si       0.50630    0.92666    0.96486    1.000
    N4401    N        0.49511    0.96816    0.96069    1.000
    N4402    N        0.61727    0.90369    0.96665    1.000
    N4403    N        0.53344    0.91792    0.99686    1.000
    Si4404   Si       0.62713    0.94123    0.98576    1.000
    N4405    N        0.63999    0.97003    0.95674    1.000
    Si4406   Si       0.67528    0.99567    0.95661    1.000
    N4407    N        0.70083    0.00274    0.99279    1.000
    N4408    N        0.81567    0.02117    0.03361    1.000
    N4409    N        0.74816    0.07662    0.02156    1.000
    N4410    N        0.86455    0.07190    0.05088    1.000
    Si4411   Si       0.88861    0.06221    0.01629    1.000
    N4412    N        0.92023    0.03323    0.02681    1.000
    N4413    N        0.79031    0.13201    0.01758    1.000
    N4414    N        0.76188    0.19788    0.02763    1.000
    N4415    N        0.83023    0.18949    0.03106    1.000
    Si4416   Si       0.79366    0.17445    0.01124    1.000
    Si4417   Si       0.85413    0.21672    0.00648    1.000
    Si4418   Si       0.97166    0.16425    0.03348    1.000
    Si4419   Si       0.90279    0.17318    0.04582    1.000
    N4420    N        0.87150    0.25397    0.02177    1.000
    N4421    N        0.94429    0.19188    0.05176    1.000
    N4422    N        0.89052    0.19163    0.00891    1.000
    N4423    N        0.94799    0.15506    0.99780    1.000
    N4424    N        0.79795    0.08346    0.07519    1.000
    N4425    N        0.76389    0.02468    0.07829    1.000
    N4426    N        0.83158    0.02976    0.10070    1.000
    Si4427   Si       0.82523    0.05187    0.06429    1.000
    Si4428   Si       0.79694    0.12353    0.05938    1.000
    Si4429   Si       0.73927    0.05568    0.06032    1.000
    Si4430   Si       0.77354    0.08886    0.11333    1.000
    Si4431   Si       0.86635    0.10820    0.07597    1.000
    N4432    N        0.94310    0.07348    0.08783    1.000
    Si4433   Si       0.92317    0.03674    0.07371    1.000
    Si4434   Si       0.93353    0.11659    0.08402    1.000
    N4435    N        0.89656    0.01982    0.10275    1.000
    N4436    N        0.96779    0.13287    0.06372    1.000
    N4437    N        0.90009    0.13282    0.06123    1.000
    Si4438   Si       0.97745    0.06493    0.11349    1.000
    N4439    N        0.83561    0.13572    0.07092    1.000
    N4440    N        0.81092    0.19040    0.10436    1.000
    Si4441   Si       0.83677    0.17970    0.07070    1.000
    N4442    N        0.76669    0.14796    0.07954    1.000
    N4443    N        0.82200    0.25372    0.07517    1.000
    Si4444   Si       0.82182    0.23206    0.11200    1.000
    Si4445   Si       0.95733    0.22059    0.08057    1.000
    Si4446   Si       0.89463    0.22433    0.10424    1.000
    N4447    N        0.87790    0.19468    0.07746    1.000
    N4448    N        0.77797    0.05405    0.13992    1.000
    N4449    N        0.78783    0.12145    0.13666    1.000
    N4450    N        0.85092    0.03584    0.16269    1.000
    Si4451   Si       0.80897    0.03492    0.16547    1.000
    Si4452   Si       0.76413    0.01788    0.12048    1.000
    Si4453   Si       0.86665    0.04675    0.12204    1.000
    Si4454   Si       0.89487    0.10306    0.14477    1.000
    N4455    N        0.91635    0.06821    0.15756    1.000
    Si4456   Si       0.95666    0.12559    0.15434    1.000
    N4457    N        0.92519    0.12700    0.12425    1.000
    N4458    N        0.98394    0.09448    0.14657    1.000
    N4459    N        0.86795    0.08786    0.11324    1.000
    Si4460   Si       0.78147    0.16210    0.11730    1.000
    N4461    N        0.86226    0.23311    0.12940    1.000
    N4462    N        0.75736    0.17893    0.15109    1.000
    N4463    N        0.80326    0.24125    0.14962    1.000
    Si4464   Si       0.84542    0.24720    0.16810    1.000
    Si4465   Si       0.77268    0.21645    0.16927    1.000
    N4466    N        0.93347    0.21523    0.11842    1.000
    Si4467   Si       0.94936    0.19972    0.15547    1.000
    N4468    N        0.97299    0.16531    0.14369    1.000
    N4469    N        0.81363    0.08679    0.19891    1.000
    N4470    N        0.80052    0.02091    0.20541    1.000
    Si4471   Si       0.85411    0.09902    0.20929    1.000
    Si4472   Si       0.79464    0.12145    0.17888    1.000
    Si4473   Si       0.79595    0.05888    0.22474    1.000
    N4474    N        0.75826    0.12887    0.20145    1.000
    Si4475   Si       0.86809    0.02068    0.20262    1.000
    N4476    N        0.87797    0.06270    0.21632    1.000
    Si4477   Si       0.91955    0.05449    0.19786    1.000
    N4478    N        0.95532    0.06657    0.21993    1.000
    N4479    N        0.88147    0.11992    0.18196    1.000
    Si4480   Si       0.97213    0.10806    0.22339    1.000
    N4481    N        0.91060    0.01151    0.19354    1.000
    N4482    N        0.94705    0.12859    0.19607    1.000
    Si4483   Si       0.97525    0.02855    0.22953    1.000
    N4484    N        0.82186    0.15297    0.19240    1.000
    N4485    N        0.85653    0.21517    0.19549    1.000
    N4486    N        0.78909    0.21058    0.21048    1.000
    Si4487   Si       0.82722    0.18866    0.21607    1.000
    Si4488   Si       0.90010    0.22071    0.20206    1.000
    Si4489   Si       0.90797    0.14857    0.20136    1.000
    N4490    N        0.91885    0.18689    0.18442    1.000
    N4491    N        0.91828    0.25544    0.18403    1.000
    N4492    N        0.97873    0.22472    0.17631    1.000
    N4493    N        0.82442    0.06072    0.25840    1.000
    Si4494   Si       0.82324    0.09955    0.27859    1.000
    N4495    N        0.78022    0.11078    0.27567    1.000
    Si4496   Si       0.75282    0.11124    0.24263    1.000
    N4497    N        0.85387    0.11738    0.25054    1.000
    N4498    N        0.75446    0.06543    0.23658    1.000
    N4499    N        0.86953    0.01105    0.25203    1.000
    Si4500   Si       0.86676    0.05263    0.25945    1.000
    N4501    N        0.96910    0.12876    0.26185    1.000
    N4502    N        0.94736    0.01438    0.26178    1.000
    N4503    N        0.89611    0.06747    0.28720    1.000
    Si4504   Si       0.77384    0.23572    0.24241    1.000
    N4505    N        0.77865    0.21549    0.27980    1.000
    N4506    N        0.84047    0.18372    0.25685    1.000
    Si4507   Si       0.82131    0.20536    0.28913    1.000
    Si4508   Si       0.87355    0.15436    0.26589    1.000
    N4509    N        0.91013    0.15984    0.24417    1.000
    N4510    N        0.90132    0.23489    0.24383    1.000
    Si4511   Si       0.94880    0.16864    0.26270    1.000
    N4512    N        0.98157    0.20074    0.26022    1.000
    N4513    N        0.84479    0.09294    0.31643    1.000
    Si4514   Si       0.76442    0.08675    0.30793    1.000
    Si4515   Si       0.78341    0.01744    0.33058    1.000
    N4516    N        0.76521    0.04403    0.30068    1.000
    N4517    N        0.82201    0.03198    0.34276    1.000
    Si4518   Si       0.82121    0.07604    0.34756    1.000
    N4519    N        0.78038    0.08909    0.34658    1.000
    N4520    N        0.93743    0.11667    0.32006    1.000
    N4521    N        0.93395    0.03053    0.33149    1.000
    Si4522   Si       0.88919    0.10041    0.31827    1.000
    Si4523   Si       0.97438    0.10803    0.30164    1.000
    N4524    N        0.97417    0.06658    0.29316    1.000
    Si4525   Si       0.93537    0.04495    0.29091    1.000
    N4526    N        0.75592    0.17549    0.33339    1.000
    N4527    N        0.82279    0.18163    0.32580    1.000
    Si4528   Si       0.85965    0.16671    0.34174    1.000
    N4529    N        0.83600    0.24627    0.29645    1.000
    Si4530   Si       0.74254    0.20363    0.30219    1.000
    Si4531   Si       0.75900    0.25833    0.34188    1.000
    N4532    N        0.88265    0.14422    0.31025    1.000
    N4533    N        0.96162    0.23937    0.32680    1.000
    N4534    N        0.89299    0.19460    0.34663    1.000
    Si4535   Si       0.97787    0.20635    0.30353    1.000
    Si4536   Si       0.91974    0.15977    0.33011    1.000
    N4537    N        0.94278    0.18293    0.30302    1.000
    N4538    N        0.83779    0.07607    0.38855    1.000
    Si4539   Si       0.75426    0.09286    0.38017    1.000
    Si4540   Si       0.84481    0.01174    0.37415    1.000
    N4541    N        0.76348    0.00978    0.36780    1.000
    Si4542   Si       0.86818    0.10448    0.39162    1.000
    N4543    N        0.95907    0.09582    0.39521    1.000
    N4544    N        0.94269    0.03167    0.39164    1.000
    Si4545   Si       0.91105    0.04336    0.36507    1.000
    N4546    N        0.89997    0.08564    0.36130    1.000
    Si4547   Si       0.93712    0.11058    0.36247    1.000
    N4548    N        0.88401    0.01358    0.38651    1.000
    Si4549   Si       0.97540    0.05674    0.40059    1.000
    Si4550   Si       0.97096    0.01722    0.35119    1.000
    N4551    N        0.74122    0.13302    0.38698    1.000
    N4552    N        0.84782    0.21380    0.39200    1.000
    N4553    N        0.85485    0.14556    0.37892    1.000
    N4554    N        0.79368    0.17489    0.39375    1.000
    Si4555   Si       0.82708    0.24958    0.37876    1.000
    N4556    N        0.79381    0.23454    0.35566    1.000
    Si4557   Si       0.79157    0.19096    0.35278    1.000
    Si4558   Si       0.83567    0.17584    0.40710    1.000
    N4559    N        0.97401    0.20719    0.39470    1.000
    Si4560   Si       0.88995    0.21795    0.38219    1.000
    Si4561   Si       0.95849    0.24116    0.36981    1.000
    N4562    N        0.91660    0.25128    0.37996    1.000
    N4563    N        0.93331    0.15166    0.37098    1.000
    Si4564   Si       0.94359    0.17743    0.40734    1.000
    Si4565   Si       0.75887    0.09245    0.45546    1.000
    Si4566   Si       0.81355    0.05758    0.41757    1.000
    N4567    N        0.77348    0.07556    0.41701    1.000
    N4568    N        0.81409    0.01402    0.41049    1.000
    N4569    N        0.78070    0.13130    0.45577    1.000
    N4570    N        0.82679    0.05238    0.45850    1.000
    N4571    N        0.95708    0.08143    0.45958    1.000
    N4572    N        0.88039    0.10524    0.43321    1.000
    Si4573   Si       0.96254    0.11449    0.43418    1.000
    N4574    N        0.91614    0.01602    0.45449    1.000
    Si4575   Si       0.99063    0.05681    0.46981    1.000
    Si4576   Si       0.76667    0.15394    0.42068    1.000
    N4577    N        0.83850    0.17107    0.44999    1.000
    N4578    N        0.74256    0.18229    0.44404    1.000
    N4579    N        0.74183    0.24301    0.41923    1.000
    N4580    N        0.93780    0.25379    0.45902    1.000
    N4581    N        0.90718    0.19965    0.42013    1.000
    Si4582   Si       0.90450    0.22316    0.45615    1.000
    N4583    N        0.95061    0.15379    0.44379    1.000
    N4584    N        0.76482    0.06981    0.49225    1.000
    N4585    N        0.83555    0.10909    0.49268    1.000
    Si4586   Si       0.75082    0.02943    0.49673    1.000
    Si4587   Si       0.85656    0.04229    0.49006    1.000
    Si4588   Si       0.80497    0.07815    0.50936    1.000
    N4589    N        0.89318    0.06943    0.49514    1.000
    N4590    N        0.96465    0.03917    0.50454    1.000
    Si4591   Si       0.93015    0.05110    0.47734    1.000
    Si4592   Si       0.87628    0.10484    0.47573    1.000
    N4593    N        0.90099    0.13423    0.49631    1.000
    Si4594   Si       0.75438    0.20030    0.48281    1.000
    Si4595   Si       0.79764    0.24717    0.51805    1.000
    N4596    N        0.79603    0.21637    0.48541    1.000
    N4597    N        0.82918    0.16902    0.51319    1.000
    Si4598   Si       0.81688    0.14454    0.47627    1.000
    Si4599   Si       0.83627    0.20098    0.48060    1.000
    N4600    N        0.75825    0.17461    0.51871    1.000
    Si4601   Si       0.95094    0.23471    0.49796    1.000
    N4602    N        0.86367    0.23120    0.46987    1.000
    N4603    N        0.96640    0.15484    0.51197    1.000
    N4604    N        0.92226    0.20144    0.49200    1.000
    Si4605   Si       0.93359    0.16066    0.48385    1.000
    N4606    N        0.79817    0.10411    0.54385    1.000
    Si4607   Si       0.84492    0.03343    0.56778    1.000
    Si4608   Si       0.77359    0.12239    0.57476    1.000
    N4609    N        0.75102    0.01143    0.53705    1.000
    N4610    N        0.81051    0.00903    0.57787    1.000
    N4611    N        0.83224    0.04672    0.52646    1.000
    Si4612   Si       0.83216    0.13114    0.53867    1.000
    N4613    N        0.87133    0.11403    0.55477    1.000
    Si4614   Si       0.96390    0.05633    0.54387    1.000
    N4615    N        0.94071    0.03145    0.56939    1.000
    N4616    N        0.94567    0.09638    0.54262    1.000
    Si4617   Si       0.90508    0.10286    0.52893    1.000
    Si4618   Si       0.96516    0.13428    0.55036    1.000
    N4619    N        0.79271    0.22413    0.55372    1.000
    N4620    N        0.80400    0.15865    0.57255    1.000
    Si4621   Si       0.79620    0.18394    0.53790    1.000
    N4622    N        0.94793    0.15555    0.58451    1.000
    Si4623   Si       0.93123    0.25511    0.57874    1.000
    N4624    N        0.76978    0.11933    0.61828    1.000
    N4625    N        0.83662    0.11964    0.61736    1.000
    Si4626   Si       0.80275    0.10034    0.63811    1.000
    N4627    N        0.80772    0.05768    0.63965    1.000
    N4628    N        0.86124    0.05950    0.59914    1.000
    Si4629   Si       0.87121    0.10158    0.59705    1.000
    Si4630   Si       0.90676    0.02210    0.60147    1.000
    N4631    N        0.90645    0.11003    0.62152    1.000
    Si4632   Si       0.94681    0.12439    0.61378    1.000
    N4633    N        0.97631    0.09336    0.60898    1.000
    N4634    N        0.89929    0.03597    0.64335    1.000
    N4635    N        0.78575    0.24159    0.63069    1.000
    N4636    N        0.84270    0.19635    0.62372    1.000
    Si4637   Si       0.82174    0.16077    0.61360    1.000
    Si4638   Si       0.75529    0.15421    0.64083    1.000
    Si4639   Si       0.79670    0.25144    0.58824    1.000
    N4640    N        0.79243    0.17297    0.64408    1.000
    N4641    N        0.90092    0.22405    0.58820    1.000
    N4642    N        0.91468    0.19478    0.63644    1.000
    N4643    N        0.96505    0.22567    0.58923    1.000
    Si4644   Si       0.93490    0.19474    0.59817    1.000
    Si4645   Si       0.87791    0.21889    0.62532    1.000
    N4646    N        0.79921    0.11007    0.68075    1.000
    Si4647   Si       0.77835    0.03013    0.65620    1.000
    N4648    N        0.84298    0.01409    0.67003    1.000
    N4649    N        0.77111    0.02504    0.69939    1.000
    Si4650   Si       0.85526    0.04997    0.64464    1.000
    Si4651   Si       0.83617    0.09735    0.70001    1.000
    N4652    N        0.86470    0.08477    0.67070    1.000
    N4653    N        0.93270    0.08509    0.68499    1.000
    Si4654   Si       0.90069    0.10746    0.66523    1.000
    Si4655   Si       0.93412    0.04243    0.67196    1.000
    N4656    N        0.97117    0.03441    0.64952    1.000
    N4657    N        0.74367    0.15265    0.68250    1.000
    N4658    N        0.81073    0.22559    0.68840    1.000
    N4659    N        0.74817    0.25639    0.68899    1.000
    Si4660   Si       0.81032    0.21011    0.64986    1.000
    N4661    N        0.86379    0.25234    0.64991    1.000
    N4662    N        0.95814    0.14381    0.65168    1.000
    Si4663   Si       0.98582    0.23429    0.69264    1.000
    N4664    N        0.95890    0.19978    0.69559    1.000
    Si4665   Si       0.93369    0.17392    0.66914    1.000
    N4666    N        0.90425    0.14427    0.68877    1.000
    N4667    N        0.82756    0.06243    0.72575    1.000
    Si4668   Si       0.83774    0.02247    0.71260    1.000
    N4669    N        0.84625    0.13333    0.72301    1.000
    N4670    N        0.74409    0.09029    0.71894    1.000
    Si4671   Si       0.76719    0.12508    0.70491    1.000
    N4672    N        0.78247    0.13035    0.74780    1.000
    Si4673   Si       0.75078    0.10134    0.76247    1.000
    Si4674   Si       0.94482    0.10091    0.72184    1.000
    Si4675   Si       0.97134    0.03276    0.73875    1.000
    N4676    N        0.96955    0.07553    0.74352    1.000
    N4677    N        0.91345    0.11473    0.75102    1.000
    N4678    N        0.94050    0.02051    0.71055    1.000
    N4679    N        0.87574    0.01557    0.73223    1.000
    N4680    N        0.76111    0.20204    0.73374    1.000
    Si4681   Si       0.77738    0.23589    0.71523    1.000
    Si4682   Si       0.95447    0.17554    0.73223    1.000
    Si4683   Si       0.88856    0.14804    0.73228    1.000
    N4684    N        0.96766    0.13662    0.71620    1.000
    N4685    N        0.98302    0.25872    0.72837    1.000
    N4686    N        0.91391    0.18737    0.74420    1.000
    N4687    N        0.82610    0.09981    0.78685    1.000
    N4688    N        0.83158    0.02532    0.78570    1.000
    N4689    N        0.77125    0.06245    0.77132    1.000
    Si4690   Si       0.81370    0.06332    0.76639    1.000
    Si4691   Si       0.74814    0.03030    0.78652    1.000
    N4692    N        0.76905    0.00651    0.81542    1.000
    Si4693   Si       0.97771    0.03777    0.81386    1.000
    Si4694   Si       0.89791    0.11851    0.79201    1.000
    N4695    N        0.96277    0.01673    0.77913    1.000
    N4696    N        0.90107    0.01700    0.79676    1.000
    N4697    N        0.98663    0.12642    0.79535    1.000
    N4698    N        0.88096    0.08495    0.81514    1.000
    Si4699   Si       0.83806    0.24795    0.80499    1.000
    N4700    N        0.79623    0.23808    0.80703    1.000
    N4701    N        0.75525    0.17627    0.80574    1.000
    N4702    N        0.81323    0.17533    0.77801    1.000
    Si4703   Si       0.85102    0.18245    0.79564    1.000
    Si4704   Si       0.76075    0.21834    0.81744    1.000
    Si4705   Si       0.76868    0.17108    0.76478    1.000
    Si4706   Si       0.82514    0.13582    0.76062    1.000
    N4707    N        0.86303    0.22100    0.78219    1.000
    N4708    N        0.92437    0.21140    0.81147    1.000
    N4709    N        0.97413    0.25109    0.79431    1.000
    Si4710   Si       0.90624    0.22176    0.77179    1.000
    N4711    N        0.86886    0.14914    0.77721    1.000
    N4712    N        0.98388    0.19151    0.76109    1.000
    N4713    N        0.81242    0.05659    0.84084    1.000
    Si4714   Si       0.77981    0.07432    0.86550    1.000
    N4715    N        0.77324    0.11866    0.85499    1.000
    N4716    N        0.83907    0.11263    0.86426    1.000
    Si4717   Si       0.83901    0.08795    0.82641    1.000
    Si4718   Si       0.74574    0.01312    0.85346    1.000
    N4719    N        0.74503    0.05589    0.84897    1.000
    Si4720   Si       0.81027    0.01867    0.82290    1.000
    N4721    N        0.89043    0.02874    0.85889    1.000
    N4722    N        0.97318    0.12450    0.86706    1.000
    Si4723   Si       0.95912    0.11123    0.82580    1.000
    Si4724   Si       0.90590    0.05056    0.82460    1.000
    N4725    N        0.94649    0.06730    0.82389    1.000
    N4726    N        0.74911    0.22444    0.85898    1.000
    Si4727   Si       0.74478    0.14146    0.83023    1.000
    N4728    N        0.80975    0.18171    0.87262    1.000
    Si4729   Si       0.80591    0.13877    0.87476    1.000
    Si4730   Si       0.85332    0.18623    0.87443    1.000
    N4731    N        0.93372    0.18187    0.87111    1.000
    N4732    N        0.86900    0.17971    0.83558    1.000
    Si4733   Si       0.96247    0.22701    0.82693    1.000
    Si4734   Si       0.97375    0.16772    0.86763    1.000
    N4735    N        0.97564    0.24995    0.86129    1.000
    Si4736   Si       0.91202    0.17773    0.83491    1.000
    N4737    N        0.92395    0.13864    0.81836    1.000
    N4738    N        0.78635    0.06641    0.90770    1.000
    N4739    N        0.85240    0.09373    0.92893    1.000
    Si4740   Si       0.80906    0.09658    0.93083    1.000
    Si4741   Si       0.87260    0.11250    0.89479    1.000
    Si4742   Si       0.91170    0.04068    0.89667    1.000
    Si4743   Si       0.94686    0.10448    0.89769    1.000
    N4744    N        0.90883    0.08592    0.88982    1.000
    N4745    N        0.94766    0.01656    0.90365    1.000
    N4746    N        0.98262    0.07531    0.90318    1.000
    Si4747   Si       0.98602    0.03146    0.89363    1.000
    N4748    N        0.88937    0.03626    0.93311    1.000
    N4749    N        0.94930    0.11667    0.93797    1.000
    N4750    N        0.79678    0.13498    0.91835    1.000
    N4751    N        0.79241    0.23947    0.91207    1.000
    Si4752   Si       0.77689    0.20708    0.88702    1.000
    N4753    N        0.74955    0.18114    0.90990    1.000
    N4754    N        0.87604    0.15615    0.89769    1.000
    Si4755   Si       0.90461    0.18872    0.90429    1.000
    N4756    N        0.87632    0.21915    0.89133    1.000
    N4757    N        0.78903    0.08622    0.96745    1.000
    N4758    N        0.79151    0.01956    0.96645    1.000
    Si4759   Si       0.77021    0.05002    0.94795    1.000
    N4760    N        0.85500    0.05289    0.98818    1.000
    Si4761   Si       0.82749    0.02034    0.99189    1.000
    Si4762   Si       0.76427    0.10516    0.99418    1.000
    N4763    N        0.97565    0.09190    0.98854    1.000
    N4764    N        0.90461    0.09204    0.98711    1.000
    Si4765   Si       0.87858    0.07231    0.95712    1.000
    Si4766   Si       0.93928    0.11615    0.98032    1.000
    N4767    N        0.74266    0.13770    0.97168    1.000
    N4768    N        0.83630    0.23518    0.97122    1.000
    N4769    N        0.76457    0.24551    0.97769    1.000
    N4770    N        0.79261    0.18238    0.96903    1.000
    Si4771   Si       0.79511    0.22388    0.95537    1.000
    Si4772   Si       0.76867    0.15718    0.94207    1.000
    Si4773   Si       0.92748    0.19322    0.98475    1.000
    N4774    N        0.92195    0.18704    0.94282    1.000
    N4775    N        0.93565    0.23800    0.99065    1.000
    Si4776   Si       0.96881    0.25136    0.96606    1.000
    N4777    N        0.78788    0.30828    0.02027    1.000
    N4778    N        0.83851    0.36255    0.01968    1.000
    Si4779   Si       0.74459    0.30070    0.02502    1.000
    N4780    N        0.75170    0.27065    0.05509    1.000
    N4781    N        0.92002    0.29990    0.02691    1.000
    Si4782   Si       0.92316    0.34346    0.02180    1.000
    N4783    N        0.96385    0.35725    0.00795    1.000
    Si4784   Si       0.90840    0.26795    0.00077    1.000
    Si4785   Si       0.98898    0.27667    0.03442    1.000
    N4786    N        0.89928    0.36084    0.05529    1.000
    Si4787   Si       0.81264    0.44631    0.03341    1.000
    N4788    N        0.75281    0.39206    0.02863    1.000
    N4789    N        0.78129    0.47725    0.04187    1.000
    N4790    N        0.85183    0.46050    0.04661    1.000
    N4791    N        0.79949    0.42746    0.99507    1.000
    Si4792   Si       0.94897    0.47413    0.02572    1.000
    Si4793   Si       0.87508    0.48046    0.01441    1.000
    N4794    N        0.97580    0.44093    0.02855    1.000
    N4795    N        0.91410    0.47003    0.00136    1.000
    N4796    N        0.78409    0.31411    0.08959    1.000
    N4797    N        0.83788    0.36595    0.09457    1.000
    N4798    N        0.75517    0.37450    0.09756    1.000
    Si4799   Si       0.74425    0.33272    0.09157    1.000
    N4800    N        0.84520    0.31160    0.06926    1.000
    Si4801   Si       0.85978    0.27214    0.06035    1.000
    Si4802   Si       0.82109    0.32909    0.10577    1.000
    Si4803   Si       0.85860    0.35041    0.05737    1.000
    Si4804   Si       0.79393    0.28372    0.05933    1.000
    N4805    N        0.93934    0.32435    0.08903    1.000
    Si4806   Si       0.92745    0.36551    0.08665    1.000
    Si4807   Si       0.92859    0.28818    0.06799    1.000
    N4808    N        0.89657    0.26224    0.08140    1.000
    N4809    N        0.96082    0.26027    0.06321    1.000
    Si4810   Si       0.85312    0.46858    0.09043    1.000
    N4811    N        0.81195    0.48082    0.10285    1.000
    Si4812   Si       0.82404    0.40645    0.10494    1.000
    N4813    N        0.80561    0.41810    0.06657    1.000
    Si4814   Si       0.76459    0.40619    0.06775    1.000
    N4815    N        0.74851    0.43812    0.09055    1.000
    Si4816   Si       0.77076    0.47523    0.08502    1.000
    N4817    N        0.85880    0.42894    0.10921    1.000
    Si4818   Si       0.92432    0.48520    0.10411    1.000
    N4819    N        0.95918    0.39384    0.08067    1.000
    N4820    N        0.88183    0.49595    0.10805    1.000
    N4821    N        0.93603    0.49428    0.06413    1.000
    N4822    N        0.80630    0.33061    0.14788    1.000
    Si4823   Si       0.76302    0.33278    0.15843    1.000
    N4824    N        0.74845    0.37388    0.16857    1.000
    N4825    N        0.91869    0.31516    0.15517    1.000
    Si4826   Si       0.95442    0.31659    0.12902    1.000
    N4827    N        0.97529    0.27903    0.13610    1.000
    N4828    N        0.98055    0.34783    0.14668    1.000
    Si4829   Si       0.91226    0.35859    0.16347    1.000
    N4830    N        0.91786    0.38246    0.12803    1.000
    Si4831   Si       0.96046    0.26486    0.17475    1.000
    N4832    N        0.76967    0.49184    0.15235    1.000
    Si4833   Si       0.81286    0.49116    0.14598    1.000
    Si4834   Si       0.75355    0.40154    0.13237    1.000
    N4835    N        0.79695    0.41007    0.13841    1.000
    N4836    N        0.83267    0.46113    0.16851    1.000
    Si4837   Si       0.95562    0.41166    0.12024    1.000
    N4838    N        0.92768    0.44363    0.11746    1.000
    Si4839   Si       0.89470    0.42155    0.13233    1.000
    N4840    N        0.98670    0.42017    0.14953    1.000
    N4841    N        0.94694    0.50806    0.13322    1.000
    N4842    N        0.88717    0.42060    0.17401    1.000
    N4843    N        0.75481    0.30514    0.19048    1.000
    N4844    N        0.81118    0.33596    0.21560    1.000
    Si4845   Si       0.77918    0.30860    0.22643    1.000
    Si4846   Si       0.83552    0.32675    0.17912    1.000
    N4847    N        0.85321    0.28676    0.18301    1.000
    Si4848   Si       0.89638    0.29377    0.18602    1.000
    Si4849   Si       0.97359    0.33984    0.19094    1.000
    N4850    N        0.93637    0.36189    0.20050    1.000
    N4851    N        0.97540    0.29700    0.20105    1.000
    N4852    N        0.90341    0.30943    0.22818    1.000
    N4853    N        0.87022    0.35221    0.17753    1.000
    Si4854   Si       0.74664    0.42128    0.22822    1.000
    N4855    N        0.82818    0.40181    0.20725    1.000
    N4856    N        0.77235    0.43959    0.19747    1.000
    Si4857   Si       0.76726    0.48308    0.19491    1.000
    Si4858   Si       0.80844    0.42631    0.17824    1.000
    Si4859   Si       0.87121    0.45891    0.18781    1.000
    Si4860   Si       0.90378    0.49396    0.22788    1.000
    N4861    N        0.90192    0.48848    0.18332    1.000
    N4862    N        0.96597    0.43666    0.21663    1.000
    Si4863   Si       0.86902    0.39028    0.19815    1.000
    N4864    N        0.86512    0.47169    0.23364    1.000
    N4865    N        0.79738    0.27360    0.24595    1.000
    N4866    N        0.75635    0.32439    0.25947    1.000
    N4867    N        0.83272    0.37332    0.27484    1.000
    Si4868   Si       0.74942    0.36576    0.27496    1.000
    Si4869   Si       0.81394    0.37291    0.23515    1.000
    Si4870   Si       0.80819    0.27856    0.28704    1.000
    Si4871   Si       0.73560    0.30032    0.28918    1.000
    N4872    N        0.95468    0.27238    0.26206    1.000
    Si4873   Si       0.91375    0.27485    0.25313    1.000
    N4874    N        0.93570    0.36104    0.27384    1.000
    Si4875   Si       0.91366    0.35082    0.23700    1.000
    Si4876   Si       0.97632    0.34262    0.28893    1.000
    N4877    N        0.88273    0.38455    0.23872    1.000
    N4878    N        0.77387    0.38789    0.24396    1.000
    N4879    N        0.82553    0.43652    0.27383    1.000
    Si4880   Si       0.84086    0.47742    0.27021    1.000
    N4881    N        0.75102    0.44247    0.26770    1.000
    Si4882   Si       0.86058    0.40597    0.26895    1.000
    Si4883   Si       0.78515    0.41827    0.27882    1.000
    N4884    N        0.81276    0.50805    0.28220    1.000
    N4885    N        0.98070    0.43501    0.28661    1.000
    N4886    N        0.92808    0.47503    0.25858    1.000
    Si4887   Si       0.96707    0.46031    0.25078    1.000
    N4888    N        0.89414    0.42115    0.29124    1.000
    Si4889   Si       0.84000    0.35195    0.31165    1.000
    N4890    N        0.76875    0.27915    0.30630    1.000
    N4891    N        0.83437    0.30916    0.30541    1.000
    Si4892   Si       0.86276    0.27652    0.31619    1.000
    N4893    N        0.81954    0.36980    0.34849    1.000
    Si4894   Si       0.94460    0.27496    0.30439    1.000
    N4895    N        0.88121    0.35935    0.31565    1.000
    N4896    N        0.96353    0.31063    0.31727    1.000
    N4897    N        0.90084    0.27885    0.29800    1.000
    Si4898   Si       0.91584    0.38450    0.30440    1.000
    Si4899   Si       0.77837    0.38266    0.34911    1.000
    N4900    N        0.76997    0.38826    0.30657    1.000
    N4901    N        0.77582    0.47518    0.33383    1.000
    N4902    N        0.92706    0.38650    0.34654    1.000
    N4903    N        0.87168    0.48654    0.29759    1.000
    Si4904   Si       0.97499    0.45265    0.32639    1.000
    N4905    N        0.93387    0.46473    0.33087    1.000
    Si4906   Si       0.90684    0.46244    0.29524    1.000
    N4907    N        0.76047    0.35242    0.37321    1.000
    Si4908   Si       0.83384    0.37394    0.38878    1.000
    N4909    N        0.74917    0.28588    0.37147    1.000
    N4910    N        0.86000    0.26869    0.35962    1.000
    N4911    N        0.91566    0.31696    0.36709    1.000
    Si4912   Si       0.89181    0.28623    0.38338    1.000
    Si4913   Si       0.95965    0.31329    0.36171    1.000
    N4914    N        0.87645    0.37124    0.39092    1.000
    N4915    N        0.97912    0.27850    0.37579    1.000
    Si4916   Si       0.89816    0.35558    0.35649    1.000
    N4917    N        0.98151    0.34625    0.37612    1.000
    N4918    N        0.76458    0.41783    0.37042    1.000
    Si4919   Si       0.74573    0.45151    0.35307    1.000
    N4920    N        0.81701    0.40881    0.41024    1.000
    N4921    N        0.98035    0.42017    0.35785    1.000
    N4922    N        0.93298    0.45165    0.39988    1.000
    N4923    N        0.96467    0.50534    0.38307    1.000
    Si4924   Si       0.92290    0.49294    0.36147    1.000
    N4925    N        0.88535    0.49087    0.38954    1.000
    Si4926   Si       0.94318    0.41336    0.38002    1.000
    Si4927   Si       0.83309    0.30550    0.42744    1.000
    N4928    N        0.75828    0.31427    0.43372    1.000
    Si4929   Si       0.77452    0.35002    0.41399    1.000
    N4930    N        0.81584    0.34288    0.41421    1.000
    Si4931   Si       0.76401    0.27744    0.41146    1.000
    N4932    N        0.80879    0.27278    0.41061    1.000
    Si4933   Si       0.96837    0.28374    0.45432    1.000
    N4934    N        0.94825    0.31753    0.43887    1.000
    N4935    N        0.87709    0.29833    0.42307    1.000
    Si4936   Si       0.90704    0.31354    0.45266    1.000
    Si4937   Si       0.96859    0.34989    0.41751    1.000
    N4938    N        0.90080    0.35716    0.46188    1.000
    N4939    N        0.75976    0.38471    0.43411    1.000
    Si4940   Si       0.80085    0.48438    0.43922    1.000
    Si4941   Si       0.83972    0.41679    0.44689    1.000
    N4942    N        0.76802    0.45661    0.43155    1.000
    N4943    N        0.83064    0.45870    0.45567    1.000
    Si4944   Si       0.77520    0.41841    0.41233    1.000
    Si4945   Si       0.89463    0.46082    0.42023    1.000
    Si4946   Si       0.90047    0.38345    0.42687    1.000
    N4947    N        0.97770    0.43943    0.46250    1.000
    N4948    N        0.96043    0.50443    0.44424    1.000
    N4949    N        0.89309    0.48283    0.45791    1.000
    N4950    N        0.88098    0.42106    0.43205    1.000
    Si4951   Si       0.96918    0.47333    0.41458    1.000
    N4952    N        0.94250    0.38456    0.41352    1.000
    N4953    N        0.77245    0.34435    0.49537    1.000
    Si4954   Si       0.80123    0.31155    0.50425    1.000
    N4955    N        0.77121    0.27812    0.50482    1.000
    Si4956   Si       0.85634    0.27143    0.48536    1.000
    N4957    N        0.83703    0.26402    0.52339    1.000
    N4958    N        0.82729    0.30211    0.46965    1.000
    N4959    N        0.89194    0.29435    0.48996    1.000
    Si4960   Si       0.91329    0.36394    0.50277    1.000
    N4961    N        0.93846    0.33127    0.52061    1.000
    Si4962   Si       0.98141    0.33011    0.52114    1.000
    N4963    N        0.98781    0.29399    0.49445    1.000
    Si4964   Si       0.91526    0.29501    0.52613    1.000
    Si4965   Si       0.78890    0.38426    0.50284    1.000
    N4966    N        0.82507    0.39244    0.48028    1.000
    Si4967   Si       0.84912    0.39945    0.51757    1.000
    N4968    N        0.75508    0.40985    0.50071    1.000
    Si4969   Si       0.86090    0.47287    0.48411    1.000
    Si4970   Si       0.74132    0.44305    0.52453    1.000
    N4971    N        0.86787    0.43830    0.51099    1.000
    N4972    N        0.93578    0.46244    0.52048    1.000
    Si4973   Si       0.96249    0.43329    0.50246    1.000
    N4974    N        0.93220    0.40322    0.50309    1.000
    Si4975   Si       0.81880    0.35894    0.56793    1.000
    Si4976   Si       0.84722    0.29227    0.55421    1.000
    N4977    N        0.82114    0.32620    0.53992    1.000
    N4978    N        0.76528    0.28020    0.57923    1.000
    N4979    N        0.88941    0.29795    0.55981    1.000
    N4980    N        0.88056    0.37244    0.53009    1.000
    N4981    N        0.98771    0.35166    0.56173    1.000
    N4982    N        0.93641    0.25801    0.53365    1.000
    Si4983   Si       0.80821    0.43159    0.56946    1.000
    Si4984   Si       0.76787    0.49411    0.56472    1.000
    N4985    N        0.77648    0.45332    0.54972    1.000
    N4986    N        0.81376    0.39578    0.54294    1.000
    Si4987   Si       0.89124    0.37927    0.57301    1.000
    Si4988   Si       0.93551    0.49908    0.54641    1.000
    N4989    N        0.89181    0.50002    0.56295    1.000
    Si4990   Si       0.90883    0.43106    0.52785    1.000
    N4991    N        0.90952    0.41953    0.56961    1.000
    Si4992   Si       0.84269    0.28617    0.63164    1.000
    N4993    N        0.85289    0.37079    0.59325    1.000
    Si4994   Si       0.75688    0.31929    0.59693    1.000
    N4995    N        0.78483    0.34981    0.59327    1.000
    Si4996   Si       0.78705    0.37631    0.62988    1.000
    Si4997   Si       0.85764    0.35878    0.63667    1.000
    N4998    N        0.83293    0.27594    0.59111    1.000
    N4999    N        0.75447    0.31108    0.64038    1.000
    N5000    N        0.86936    0.31943    0.62900    1.000
    N5001    N        0.93127    0.28523    0.61240    1.000
    Si5002   Si       0.90053    0.31350    0.59870    1.000
    Si5003   Si       0.93601    0.36937    0.63083    1.000
    N5004    N        0.91995    0.35215    0.59393    1.000
    N5005    N        0.96348    0.33618    0.64050    1.000
    Si5006   Si       0.99012    0.33367    0.60172    1.000
    Si5007   Si       0.75825    0.47448    0.63070    1.000
    N5008    N        0.79746    0.41327    0.60995    1.000
    N5009    N        0.78442    0.49705    0.60419    1.000
    Si5010   Si       0.82022    0.44481    0.63164    1.000
    N5011    N        0.83847    0.45570    0.59388    1.000
    Si5012   Si       0.93125    0.44231    0.60197    1.000
    Si5013   Si       0.93607    0.50325    0.62382    1.000
    N5014    N        0.90351    0.46936    0.62646    1.000
    Si5015   Si       0.87071    0.48436    0.59876    1.000
    N5016    N        0.95077    0.47989    0.58721    1.000
    N5017    N        0.95650    0.41007    0.62081    1.000
    N5018    N        0.81272    0.29139    0.66619    1.000
    Si5019   Si       0.80369    0.33013    0.68812    1.000
    N5020    N        0.81787    0.35817    0.65539    1.000
    Si5021   Si       0.77185    0.27382    0.65469    1.000
    N5022    N        0.76197    0.34049    0.69794    1.000
    Si5023   Si       0.83839    0.25976    0.68445    1.000
    Si5024   Si       0.95058    0.29303    0.65278    1.000
    N5025    N        0.89948    0.37591    0.65284    1.000
    N5026    N        0.93142    0.29428    0.69277    1.000
    N5027    N        0.98167    0.26238    0.65969    1.000
    N5028    N        0.74703    0.38525    0.64973    1.000
    N5029    N        0.84917    0.44143    0.66544    1.000
    N5030    N        0.78890    0.46033    0.65968    1.000
    Si5031   Si       0.90392    0.39368    0.69296    1.000
    N5032    N        0.88392    0.50325    0.68318    1.000
    Si5033   Si       0.88830    0.46281    0.66881    1.000
    N5034    N        0.97817    0.45580    0.66754    1.000
    N5035    N        0.91577    0.43463    0.68614    1.000
    N5036    N        0.99275    0.38951    0.67880    1.000
    Si5037   Si       0.99084    0.42106    0.64826    1.000
    N5038    N        0.82256    0.32866    0.72584    1.000
    Si5039   Si       0.82876    0.29040    0.74584    1.000
    Si5040   Si       0.85507    0.35586    0.73935    1.000
    N5041    N        0.79379    0.26712    0.74141    1.000
    N5042    N        0.85958    0.27314    0.71840    1.000
    Si5043   Si       0.74127    0.35469    0.73185    1.000
    Si5044   Si       0.96964    0.29855    0.71626    1.000
    Si5045   Si       0.92611    0.34792    0.74889    1.000
    N5046    N        0.93535    0.37551    0.71685    1.000
    Si5047   Si       0.89870    0.28935    0.72610    1.000
    N5048    N        0.88834    0.32845    0.74218    1.000
    N5049    N        0.95710    0.31738    0.75343    1.000
    N5050    N        0.91611    0.26210    0.75538    1.000
    N5051    N        0.80839    0.44261    0.72800    1.000
    Si5052   Si       0.84803    0.43076    0.70748    1.000
    N5053    N        0.77072    0.50447    0.71016    1.000
    N5054    N        0.74206    0.44082    0.70798    1.000
    Si5055   Si       0.83182    0.46458    0.75743    1.000
    Si5056   Si       0.77916    0.46171    0.70203    1.000
    N5057    N        0.86657    0.46214    0.73238    1.000
    Si5058   Si       0.89084    0.49749    0.72768    1.000
    N5059    N        0.97778    0.43106    0.73038    1.000
    N5060    N        0.86452    0.38982    0.71286    1.000
    Si5061   Si       0.97632    0.38927    0.71778    1.000
    Si5062   Si       0.95106    0.45301    0.70241    1.000
    N5063    N        0.93321    0.48826    0.72141    1.000
    N5064    N        0.83364    0.28935    0.78947    1.000
    N5065    N        0.76611    0.30714    0.80583    1.000
    Si5066   Si       0.77294    0.26949    0.78488    1.000
    N5067    N        0.74991    0.37402    0.77196    1.000
    N5068    N        0.83590    0.37454    0.77304    1.000
    Si5069   Si       0.94844    0.28208    0.77868    1.000
    N5070    N        0.93863    0.36826    0.78656    1.000
    Si5071   Si       0.98041    0.34952    0.78332    1.000
    N5072    N        0.92438    0.29596    0.81448    1.000
    Si5073   Si       0.82374    0.40471    0.79998    1.000
    N5074    N        0.78323    0.42440    0.80619    1.000
    N5075    N        0.84663    0.44289    0.79374    1.000
    N5076    N        0.81153    0.50115    0.76840    1.000
    Si5077   Si       0.74370    0.41253    0.79178    1.000
    Si5078   Si       0.95215    0.46741    0.81307    1.000
    N5079    N        0.96891    0.49570    0.78266    1.000
    N5080    N        0.90924    0.46957    0.80295    1.000
    Si5081   Si       0.89247    0.50987    0.80385    1.000
    Si5082   Si       0.76261    0.31305    0.84923    1.000
    N5083    N        0.75606    0.35586    0.85491    1.000
    N5084    N        0.80095    0.30239    0.86470    1.000
    Si5085   Si       0.83509    0.30144    0.83467    1.000
    Si5086   Si       0.79103    0.37800    0.86823    1.000
    N5087    N        0.85009    0.26128    0.84420    1.000
    Si5088   Si       0.86472    0.37329    0.84957    1.000
    N5089    N        0.86591    0.32835    0.84500    1.000
    Si5090   Si       0.90733    0.31452    0.84822    1.000
    N5091    N        0.92766    0.35417    0.85819    1.000
    N5092    N        0.82386    0.38304    0.83867    1.000
    N5093    N        0.85549    0.50584    0.82596    1.000
    Si5094   Si       0.77927    0.44708    0.84304    1.000
    N5095    N        0.80793    0.46984    0.86813    1.000
    Si5096   Si       0.84684    0.48510    0.86418    1.000
    N5097    N        0.74595    0.47314    0.85793    1.000
    N5098    N        0.77690    0.41687    0.87471    1.000
    Si5099   Si       0.88133    0.44068    0.81906    1.000
    N5100    N        0.89227    0.39876    0.82750    1.000
    N5101    N        0.95514    0.42491    0.82538    1.000
    N5102    N        0.95907    0.48905    0.84999    1.000
    N5103    N        0.87551    0.45295    0.86041    1.000
    Si5104   Si       0.93422    0.38677    0.82655    1.000
    Si5105   Si       0.80244    0.28302    0.90394    1.000
    N5106    N        0.80003    0.36469    0.90828    1.000
    N5107    N        0.84424    0.27879    0.91505    1.000
    N5108    N        0.77868    0.30204    0.93483    1.000
    Si5109   Si       0.77113    0.34564    0.93521    1.000
    Si5110   Si       0.93291    0.36559    0.90271    1.000
    Si5111   Si       0.91900    0.29359    0.92066    1.000
    N5112    N        0.90864    0.33549    0.92297    1.000
    N5113    N        0.95525    0.26970    0.92868    1.000
    Si5114   Si       0.98438    0.27566    0.89656    1.000
    N5115    N        0.96590    0.35973    0.93159    1.000
    N5116    N        0.90528    0.28324    0.88042    1.000
    Si5117   Si       0.86901    0.25963    0.88306    1.000
    N5118    N        0.98315    0.31559    0.87880    1.000
    Si5119   Si       0.83441    0.38857    0.91849    1.000
    N5120    N        0.82189    0.42997    0.92842    1.000
    Si5121   Si       0.79214    0.44767    0.90443    1.000
    N5122    N        0.75564    0.45860    0.92890    1.000
    N5123    N        0.85435    0.50442    0.90276    1.000
    N5124    N        0.86569    0.39291    0.88914    1.000
    Si5125   Si       0.95626    0.43120    0.92553    1.000
    N5126    N        0.93230    0.40897    0.89815    1.000
    Si5127   Si       0.89211    0.42870    0.89350    1.000
    N5128    N        0.89318    0.45203    0.93052    1.000
    N5129    N        0.96116    0.47622    0.92733    1.000
    N5130    N        0.84070    0.31124    0.97672    1.000
    N5131    N        0.78116    0.35942    0.97465    1.000
    Si5132   Si       0.85072    0.27367    0.95707    1.000
    N5133    N        0.85540    0.36789    0.94952    1.000
    Si5134   Si       0.74825    0.27923    0.95279    1.000
    Si5135   Si       0.81028    0.33583    0.99661    1.000
    N5136    N        0.98604    0.28297    0.99138    1.000
    Si5137   Si       0.88002    0.33159    0.95704    1.000
    Si5138   Si       0.94788    0.37196    0.97065    1.000
    N5139    N        0.89645    0.28611    0.96025    1.000
    N5140    N        0.90375    0.35681    0.98570    1.000
    Si5141   Si       0.86534    0.37977    0.99036    1.000
    N5142    N        0.79231    0.50200    0.97560    1.000
    Si5143   Si       0.76816    0.39778    0.98983    1.000
    N5144    N        0.85245    0.48274    0.97266    1.000
    Si5145   Si       0.83232    0.44250    0.97033    1.000
    Si5146   Si       0.76151    0.49978    0.94313    1.000
    N5147    N        0.86788    0.42221    0.98753    1.000
    Si5148   Si       0.90398    0.43856    0.97082    1.000
    N5149    N        0.93729    0.41401    0.96154    1.000
    Si5150   Si       0.87656    0.49228    0.93671    1.000
    Si5151   Si       0.81028    0.58489    0.02800    1.000
    N5152    N        0.80667    0.54385    0.02045    1.000
    N5153    N        0.85371    0.59167    0.03114    1.000
    Si5154   Si       0.77742    0.51300    0.01743    1.000
    N5155    N        0.79199    0.60826    0.99782    1.000
    N5156    N        0.86593    0.52167    0.01921    1.000
    Si5157   Si       0.87586    0.55561    0.04265    1.000
    Si5158   Si       0.88316    0.61329    0.00566    1.000
    N5159    N        0.91726    0.56139    0.03871    1.000
    Si5160   Si       0.94864    0.53274    0.04812    1.000
    N5161    N        0.96888    0.51343    0.01348    1.000
    Si5162   Si       0.76627    0.74942    0.03759    1.000
    Si5163   Si       0.79309    0.69109    0.03199    1.000
    N5164    N        0.75418    0.70625    0.02588    1.000
    N5165    N        0.80898    0.73013    0.04416    1.000
    N5166    N        0.84893    0.74062    0.99452    1.000
    Si5167   Si       0.94828    0.64452    0.02965    1.000
    Si5168   Si       0.93652    0.72038    0.00918    1.000
    Si5169   Si       0.87709    0.71629    0.01989    1.000
    N5170    N        0.90772    0.74509    0.02923    1.000
    N5171    N        0.95415    0.68878    0.03365    1.000
    N5172    N        0.90642    0.63592    0.03444    1.000
    Si5173   Si       0.76927    0.58309    0.09533    1.000
    N5174    N        0.80340    0.59111    0.07113    1.000
    Si5175   Si       0.84164    0.59538    0.08931    1.000
    N5176    N        0.74315    0.50886    0.09209    1.000
    N5177    N        0.75215    0.62031    0.10731    1.000
    N5178    N        0.86582    0.55873    0.08687    1.000
    N5179    N        0.97739    0.55559    0.07000    1.000
    N5180    N        0.97650    0.62332    0.05599    1.000
    Si5181   Si       0.98364    0.59591    0.08844    1.000
    Si5182   Si       0.83567    0.67705    0.08159    1.000
    Si5183   Si       0.81134    0.74432    0.08618    1.000
    N5184    N        0.79829    0.66700    0.06647    1.000
    Si5185   Si       0.76316    0.65813    0.09007    1.000
    N5186    N        0.85483    0.63860    0.09232    1.000
    N5187    N        0.76813    0.75083    0.08435    1.000
    N5188    N        0.82943    0.71086    0.10955    1.000
    Si5189   Si       0.74198    0.72419    0.10805    1.000
    N5190    N        0.92145    0.66553    0.09822    1.000
    Si5191   Si       0.89037    0.65473    0.06987    1.000
    N5192    N        0.86736    0.68755    0.05159    1.000
    Si5193   Si       0.80735    0.56643    0.15558    1.000
    N5194    N        0.83061    0.52972    0.15017    1.000
    N5195    N        0.83303    0.59501    0.13335    1.000
    N5196    N        0.77096    0.55824    0.13081    1.000
    Si5197   Si       0.74743    0.52291    0.13329    1.000
    Si5198   Si       0.85276    0.63386    0.13804    1.000
    Si5199   Si       0.86581    0.53492    0.12314    1.000
    N5200    N        0.89267    0.55169    0.15298    1.000
    N5201    N        0.95884    0.60429    0.12248    1.000
    Si5202   Si       0.97198    0.59043    0.16087    1.000
    N5203    N        0.89450    0.62608    0.14563    1.000
    Si5204   Si       0.92351    0.52190    0.16633    1.000
    Si5205   Si       0.89365    0.59327    0.17282    1.000
    N5206    N        0.83112    0.66085    0.15851    1.000
    Si5207   Si       0.83534    0.70426    0.15204    1.000
    N5208    N        0.75316    0.68606    0.12214    1.000
    N5209    N        0.95864    0.66841    0.15356    1.000
    Si5210   Si       0.93192    0.64007    0.13225    1.000
    N5211    N        0.94541    0.73573    0.12439    1.000
    Si5212   Si       0.95097    0.69485    0.11491    1.000
    N5213    N        0.87240    0.72135    0.16589    1.000
    N5214    N        0.79337    0.58599    0.19075    1.000
    Si5215   Si       0.75529    0.60845    0.20058    1.000
    Si5216   Si       0.82781    0.60040    0.21466    1.000
    N5217    N        0.79634    0.50303    0.21903    1.000
    N5218    N        0.86993    0.60883    0.20444    1.000
    N5219    N        0.93559    0.59063    0.18649    1.000
    N5220    N        0.95258    0.52902    0.19947    1.000
    Si5221   Si       0.93545    0.56445    0.22309    1.000
    N5222    N        0.81495    0.64223    0.22586    1.000
    N5223    N        0.80460    0.70852    0.18614    1.000
    Si5224   Si       0.80107    0.66344    0.19108    1.000
    N5225    N        0.76194    0.64773    0.18227    1.000
    Si5226   Si       0.81411    0.72384    0.22584    1.000
    N5227    N        0.97096    0.71828    0.20506    1.000
    Si5228   Si       0.89693    0.75194    0.18921    1.000
    N5229    N        0.91085    0.73491    0.22552    1.000
    Si5230   Si       0.98174    0.67738    0.19003    1.000
    N5231    N        0.97558    0.65181    0.22472    1.000
    N5232    N        0.76746    0.54848    0.25437    1.000
    Si5233   Si       0.75477    0.58470    0.27685    1.000
    Si5234   Si       0.80678    0.53332    0.24684    1.000
    N5235    N        0.74511    0.61249    0.24343    1.000
    N5236    N        0.83692    0.56430    0.23884    1.000
    N5237    N        0.86041    0.62910    0.27478    1.000
    Si5238   Si       0.88986    0.62831    0.23844    1.000
    Si5239   Si       0.87633    0.56322    0.25452    1.000
    N5240    N        0.91091    0.59419    0.25418    1.000
    N5241    N        0.97039    0.58340    0.24323    1.000
    Si5242   Si       0.94700    0.59712    0.27972    1.000
    N5243    N        0.90055    0.53633    0.23177    1.000
    N5244    N        0.84643    0.69767    0.24164    1.000
    N5245    N        0.77974    0.71322    0.25124    1.000
    Si5246   Si       0.83202    0.66046    0.26173    1.000
    Si5247   Si       0.74445    0.73643    0.25487    1.000
    Si5248   Si       0.78867    0.70604    0.29359    1.000
    N5249    N        0.89427    0.71323    0.28775    1.000
    N5250    N        0.91113    0.66459    0.24222    1.000
    Si5251   Si       0.95122    0.66441    0.25797    1.000
    Si5252   Si       0.88962    0.70374    0.24726    1.000
    Si5253   Si       0.95239    0.74030    0.24200    1.000
    N5254    N        0.95816    0.70629    0.27045    1.000
    N5255    N        0.96486    0.63584    0.28996    1.000
    N5256    N        0.77659    0.60389    0.30955    1.000
    N5257    N        0.76642    0.54276    0.33183    1.000
    N5258    N        0.83848    0.61518    0.33801    1.000
    N5259    N        0.83331    0.51915    0.34581    1.000
    Si5260   Si       0.76819    0.58270    0.34784    1.000
    Si5261   Si       0.79513    0.51164    0.32413    1.000
    N5262    N        0.86785    0.55977    0.29882    1.000
    Si5263   Si       0.86845    0.60427    0.30919    1.000
    Si5264   Si       0.92842    0.56898    0.34236    1.000
    Si5265   Si       0.86943    0.52230    0.32134    1.000
    N5266    N        0.90625    0.60450    0.32985    1.000
    N5267    N        0.96040    0.57354    0.31278    1.000
    N5268    N        0.90979    0.52933    0.33916    1.000
    Si5269   Si       0.80115    0.63496    0.32552    1.000
    N5270    N        0.75121    0.70088    0.31478    1.000
    N5271    N        0.82213    0.73329    0.30133    1.000
    N5272    N        0.80600    0.66525    0.29447    1.000
    N5273    N        0.93348    0.68556    0.33378    1.000
    Si5274   Si       0.86435    0.73569    0.30916    1.000
    Si5275   Si       0.96302    0.65179    0.33415    1.000
    Si5276   Si       0.93720    0.71902    0.30480    1.000
    N5277    N        0.95800    0.74368    0.33473    1.000
    N5278    N        0.87841    0.73459    0.35058    1.000
    N5279    N        0.79767    0.58145    0.37975    1.000
    Si5280   Si       0.83760    0.59861    0.37839    1.000
    Si5281   Si       0.85460    0.52000    0.38771    1.000
    Si5282   Si       0.79333    0.54925    0.40814    1.000
    N5283    N        0.75209    0.53214    0.40596    1.000
    N5284    N        0.83156    0.63157    0.40740    1.000
    N5285    N        0.86288    0.56374    0.39016    1.000
    N5286    N        0.93736    0.56751    0.38568    1.000
    N5287    N        0.75978    0.72475    0.38233    1.000
    N5288    N        0.78154    0.65537    0.35990    1.000
    Si5289   Si       0.79374    0.65115    0.40048    1.000
    Si5290   Si       0.75387    0.68995    0.35713    1.000
    N5291    N        0.82392    0.75422    0.38843    1.000
    Si5292   Si       0.79513    0.72903    0.40862    1.000
    N5293    N        0.95539    0.63979    0.37399    1.000
    N5294    N        0.88729    0.67091    0.38419    1.000
    Si5295   Si       0.90419    0.70304    0.36238    1.000
    Si5296   Si       0.91857    0.64650    0.39866    1.000
    N5297    N        0.93187    0.72105    0.39071    1.000
    Si5298   Si       0.96453    0.74602    0.37673    1.000
    N5299    N        0.78168    0.57064    0.44610    1.000
    Si5300   Si       0.75231    0.53525    0.45383    1.000
    N5301    N        0.81851    0.51503    0.41099    1.000
    Si5302   Si       0.90171    0.57246    0.40919    1.000
    Si5303   Si       0.95467    0.53938    0.41532    1.000
    N5304    N        0.97862    0.61889    0.44753    1.000
    N5305    N        0.91734    0.54674    0.44047    1.000
    N5306    N        0.89882    0.61430    0.42075    1.000
    Si5307   Si       0.88293    0.62901    0.45949    1.000
    N5308    N        0.75553    0.64756    0.42180    1.000
    N5309    N        0.78695    0.74704    0.44758    1.000
    Si5310   Si       0.85287    0.66927    0.41028    1.000
    N5311    N        0.81372    0.69071    0.40998    1.000
    Si5312   Si       0.74946    0.64311    0.46582    1.000
    Si5313   Si       0.93506    0.70959    0.43268    1.000
    N5314    N        0.86879    0.66991    0.45051    1.000
    N5315    N        0.97166    0.72429    0.44836    1.000
    N5316    N        0.94176    0.66650    0.42881    1.000
    N5317    N        0.90976    0.72620    0.46465    1.000
    Si5318   Si       0.98372    0.64359    0.41092    1.000
    N5319    N        0.81060    0.56766    0.50718    1.000
    N5320    N        0.85025    0.60642    0.47748    1.000
    Si5321   Si       0.80751    0.52226    0.50443    1.000
    Si5322   Si       0.80849    0.59375    0.47087    1.000
    Si5323   Si       0.84500    0.59528    0.52074    1.000
    N5324    N        0.78473    0.62810    0.48658    1.000
    N5325    N        0.78510    0.51007    0.46978    1.000
    N5326    N        0.84895    0.50749    0.50601    1.000
    N5327    N        0.91824    0.52456    0.51042    1.000
    Si5328   Si       0.92334    0.51328    0.46818    1.000
    N5329    N        0.91469    0.63119    0.48835    1.000
    N5330    N        0.99340    0.55071    0.48771    1.000
    Si5331   Si       0.80703    0.74749    0.48432    1.000
    N5332    N        0.79566    0.72365    0.51913    1.000
    Si5333   Si       0.75767    0.69897    0.51995    1.000
    N5334    N        0.84909    0.73694    0.47490    1.000
    Si5335   Si       0.87537    0.70324    0.47929    1.000
    N5336    N        0.97368    0.74952    0.50726    1.000
    N5337    N        0.96523    0.67691    0.49473    1.000
    Si5338   Si       0.95141    0.64464    0.46872    1.000
    Si5339   Si       0.93564    0.75495    0.48838    1.000
    N5340    N        0.88586    0.69058    0.51931    1.000
    Si5341   Si       0.90540    0.65161    0.52513    1.000
    N5342    N        0.81414    0.60954    0.54956    1.000
    Si5343   Si       0.79020    0.56599    0.54858    1.000
    N5344    N        0.78866    0.52311    0.54167    1.000
    N5345    N        0.75244    0.59045    0.53674    1.000
    Si5346   Si       0.77959    0.62515    0.52797    1.000
    N5347    N        0.86802    0.56389    0.54348    1.000
    N5348    N        0.97472    0.52165    0.54993    1.000
    Si5349   Si       0.95632    0.62019    0.56957    1.000
    Si5350   Si       0.88643    0.59467    0.56963    1.000
    N5351    N        0.98014    0.59561    0.54431    1.000
    N5352    N        0.87573    0.62474    0.54076    1.000
    Si5353   Si       0.87868    0.52496    0.53075    1.000
    Si5354   Si       0.81413    0.72643    0.55963    1.000
    N5355    N        0.76873    0.66245    0.54407    1.000
    N5356    N        0.85596    0.73240    0.56806    1.000
    Si5357   Si       0.89140    0.72547    0.54428    1.000
    N5358    N        0.98035    0.70307    0.58131    1.000
    N5359    N        0.91512    0.72487    0.58064    1.000
    N5360    N        0.93471    0.65643    0.55511    1.000
    Si5361   Si       0.80962    0.52922    0.61824    1.000
    Si5362   Si       0.81942    0.60471    0.59310    1.000
    N5363    N        0.86071    0.59988    0.60523    1.000
    N5364    N        0.80153    0.56226    0.59017    1.000
    N5365    N        0.85011    0.51819    0.62147    1.000
    N5366    N        0.79577    0.63530    0.61219    1.000
    Si5367   Si       0.92998    0.57914    0.62445    1.000
    N5368    N        0.91450    0.54022    0.63173    1.000
    N5369    N        0.97260    0.58316    0.63257    1.000
    N5370    N        0.97819    0.51373    0.63363    1.000
    Si5371   Si       0.98799    0.62288    0.64064    1.000
    N5372    N        0.92488    0.59533    0.58528    1.000
    Si5373   Si       0.81242    0.71085    0.63289    1.000
    N5374    N        0.80175    0.70097    0.59112    1.000
    Si5375   Si       0.77559    0.66542    0.58811    1.000
    N5376    N        0.85607    0.70453    0.63616    1.000
    N5377    N        0.80094    0.75139    0.64477    1.000
    N5378    N        0.92725    0.67194    0.62257    1.000
    Si5379   Si       0.87842    0.72518    0.60634    1.000
    Si5380   Si       0.94037    0.68935    0.58628    1.000
    N5381    N        0.98321    0.63876    0.60017    1.000
    N5382    N        0.96162    0.75439    0.62260    1.000
    N5383    N        0.79554    0.60651    0.67721    1.000
    Si5384   Si       0.81566    0.56712    0.67918    1.000
    N5385    N        0.79212    0.54073    0.65527    1.000
    Si5386   Si       0.75687    0.52785    0.67711    1.000
    N5387    N        0.85546    0.56682    0.66612    1.000
    Si5388   Si       0.75458    0.60827    0.69331    1.000
    Si5389   Si       0.87840    0.53382    0.65378    1.000
    N5390    N        0.91192    0.60841    0.65018    1.000
    Si5391   Si       0.86943    0.60458    0.64855    1.000
    Si5392   Si       0.80628    0.64056    0.65457    1.000
    N5393    N        0.84927    0.64268    0.66102    1.000
    N5394    N        0.79538    0.68290    0.66047    1.000
    Si5395   Si       0.75590    0.68141    0.68127    1.000
    N5396    N        0.74223    0.64350    0.66866    1.000
    Si5397   Si       0.86513    0.68218    0.67244    1.000
    N5398    N        0.90292    0.66764    0.68869    1.000
    N5399    N        0.92542    0.75105    0.69236    1.000
    N5400    N        0.96901    0.64430    0.67391    1.000
    Si5401   Si       0.96127    0.75077    0.66667    1.000
    Si5402   Si       0.92770    0.64709    0.65898    1.000
    N5403    N        0.81139    0.55797    0.72220    1.000
    Si5404   Si       0.78711    0.52691    0.74226    1.000
    Si5405   Si       0.83808    0.57865    0.74842    1.000
    N5406    N        0.75542    0.61879    0.73536    1.000
    N5407    N        0.87819    0.57788    0.73207    1.000
    N5408    N        0.95040    0.55531    0.74116    1.000
    Si5409   Si       0.90931    0.56239    0.75692    1.000
    Si5410   Si       0.96359    0.51208    0.74183    1.000
    Si5411   Si       0.98852    0.57673    0.74903    1.000
    N5412    N        0.80711    0.74539    0.72025    1.000
    Si5413   Si       0.85180    0.74137    0.72376    1.000
    Si5414   Si       0.80717    0.70051    0.72822    1.000
    N5415    N        0.76818    0.68409    0.72343    1.000
    N5416    N        0.84986    0.69963    0.70968    1.000
    Si5417   Si       0.74374    0.66346    0.75168    1.000
    Si5418   Si       0.98474    0.64062    0.71560    1.000
    Si5419   Si       0.91763    0.74761    0.73510    1.000
    Si5420   Si       0.91106    0.66673    0.73127    1.000
    N5421    N        0.87723    0.75297    0.75590    1.000
    N5422    N        0.92740    0.70574    0.74802    1.000
    N5423    N        0.94702    0.64103    0.73877    1.000
    N5424    N        0.83572    0.56051    0.78819    1.000
    Si5425   Si       0.82209    0.52258    0.80500    1.000
    N5426    N        0.78004    0.58928    0.81282    1.000
    Si5427   Si       0.77693    0.60663    0.77211    1.000
    N5428    N        0.75741    0.54261    0.76865    1.000
    Si5429   Si       0.75524    0.55135    0.81558    1.000
    Si5430   Si       0.82690    0.59792    0.81334    1.000
    N5431    N        0.81945    0.61567    0.76380    1.000
    N5432    N        0.91674    0.59228    0.78746    1.000
    Si5433   Si       0.94565    0.62464    0.77822    1.000
    N5434    N        0.98602    0.60802    0.77941    1.000
    N5435    N        0.89086    0.52357    0.76184    1.000
    N5436    N        0.75653    0.64313    0.79183    1.000
    Si5437   Si       0.81188    0.71529    0.80230    1.000
    N5438    N        0.78825    0.74895    0.78675    1.000
    Si5439   Si       0.84070    0.65240    0.77303    1.000
    N5440    N        0.81765    0.69081    0.76794    1.000
    Si5441   Si       0.74598    0.67983    0.81372    1.000
    N5442    N        0.85337    0.72315    0.81391    1.000
    Si5443   Si       0.74515    0.74308    0.78039    1.000
    N5444    N        0.83523    0.64279    0.81616    1.000
    Si5445   Si       0.93788    0.69791    0.78967    1.000
    N5446    N        0.91455    0.72156    0.81707    1.000
    N5447    N        0.97228    0.72445    0.79680    1.000
    N5448    N        0.94139    0.65802    0.80533    1.000
    N5449    N        0.88142    0.65463    0.76008    1.000
    Si5450   Si       0.75234    0.61940    0.83655    1.000
    N5451    N        0.74954    0.54793    0.86685    1.000
    N5452    N        0.78591    0.52051    0.82688    1.000
    N5453    N        0.86095    0.58512    0.84139    1.000
    Si5454   Si       0.77222    0.50821    0.86667    1.000
    N5455    N        0.77290    0.61271    0.87542    1.000
    N5456    N        0.92433    0.60519    0.85481    1.000
    Si5457   Si       0.95287    0.53018    0.85019    1.000
    Si5458   Si       0.90115    0.58128    0.82677    1.000
    N5459    N        0.91369    0.53763    0.82942    1.000
    N5460    N        0.98661    0.54537    0.82920    1.000
    Si5461   Si       0.85065    0.65785    0.85442    1.000
    N5462    N        0.78170    0.69816    0.82912    1.000
    Si5463   Si       0.79381    0.70689    0.86993    1.000
    N5464    N        0.83726    0.69848    0.87109    1.000
    Si5465   Si       0.94636    0.75151    0.82351    1.000
    N5466    N        0.95748    0.74832    0.86504    1.000
    Si5467   Si       0.92911    0.64807    0.84815    1.000
    N5468    N        0.89227    0.66848    0.85310    1.000
    Si5469   Si       0.88068    0.71023    0.84333    1.000
    Si5470   Si       0.77415    0.57206    0.89212    1.000
    Si5471   Si       0.82407    0.53255    0.91780    1.000
    N5472    N        0.81799    0.56579    0.89128    1.000
    N5473    N        0.78467    0.51520    0.90883    1.000
    Si5474   Si       0.85194    0.59301    0.88182    1.000
    N5475    N        0.76203    0.57718    0.93434    1.000
    N5476    N        0.83510    0.63370    0.88575    1.000
    Si5477   Si       0.94626    0.51645    0.92412    1.000
    N5478    N        0.88458    0.58004    0.90601    1.000
    Si5479   Si       0.92640    0.58543    0.89348    1.000
    N5480    N        0.95213    0.60123    0.92479    1.000
    N5481    N        0.94626    0.54575    0.89038    1.000
    Si5482   Si       0.98589    0.57445    0.91535    1.000
    N5483    N        0.78356    0.74263    0.89246    1.000
    Si5484   Si       0.79455    0.64228    0.89969    1.000
    Si5485   Si       0.85477    0.72335    0.90309    1.000
    N5486    N        0.77182    0.67689    0.89143    1.000
    Si5487   Si       0.73966    0.75183    0.89722    1.000
    N5488    N        0.94271    0.71953    0.92282    1.000
    N5489    N        0.89108    0.72913    0.88050    1.000
    Si5490   Si       0.94677    0.67587    0.91952    1.000
    Si5491   Si       0.92571    0.74944    0.89419    1.000
    N5492    N        0.95841    0.66044    0.87933    1.000
    Si5493   Si       0.76829    0.61101    0.95799    1.000
    N5494    N        0.84465    0.54740    0.95413    1.000
    Si5495   Si       0.83267    0.52037    0.98949    1.000
    N5496    N        0.90059    0.59043    0.97366    1.000
    Si5497   Si       0.93124    0.61850    0.95795    1.000
    Si5498   Si       0.88471    0.56206    0.94542    1.000
    N5499    N        0.97332    0.54211    0.94704    1.000
    N5500    N        0.90677    0.52474    0.94161    1.000
    N5501    N        0.79799    0.63693    0.94227    1.000
    Si5502   Si       0.74435    0.73770    0.97267    1.000
    Si5503   Si       0.82294    0.71618    0.96908    1.000
    N5504    N        0.78785    0.73962    0.96166    1.000
    Si5505   Si       0.81770    0.64086    0.98221    1.000
    N5506    N        0.85040    0.69977    0.94045    1.000
    N5507    N        0.85996    0.64034    0.98028    1.000
    N5508    N        0.81208    0.68092    0.99534    1.000
    N5509    N        0.98261    0.67257    0.94676    1.000
    N5510    N        0.95774    0.62965    0.99109    1.000
    N5511    N        0.96817    0.74122    0.98872    1.000
    N5512    N        0.90145    0.69911    0.98929    1.000
    Si5513   Si       0.97596    0.73995    0.94229    1.000
    Si5514   Si       0.88020    0.67271    0.95957    1.000
    N5515    N        0.91313    0.65571    0.93793    1.000
    N5516    N        0.79145    0.78801    0.02875    1.000
    Si5517   Si       0.83215    0.76756    0.02403    1.000
    Si5518   Si       0.77818    0.82445    0.01176    1.000
    N5519    N        0.77921    0.84636    0.05174    1.000
    N5520    N        0.86166    0.80264    0.01865    1.000
    Si5521   Si       0.91798    0.78704    0.02968    1.000
    N5522    N        0.96101    0.87407    0.01942    1.000
    Si5523   Si       0.92918    0.86309    0.04724    1.000
    N5524    N        0.95746    0.78558    0.04820    1.000
    Si5525   Si       0.98810    0.76279    0.02260    1.000
    N5526    N        0.83490    0.88334    0.01967    1.000
    N5527    N        0.75539    0.97277    0.03403    1.000
    N5528    N        0.81001    0.94911    0.01337    1.000
    Si5529   Si       0.77235    0.93307    0.02453    1.000
    Si5530   Si       0.78708    0.99541    0.05297    1.000
    N5531    N        0.89989    0.89647    0.04904    1.000
    N5532    N        0.93201    0.95914    0.01862    1.000
    N5533    N        0.98822    0.00274    0.00908    1.000
    Si5534   Si       0.94843    0.99934    0.02747    1.000
    Si5535   Si       0.87557    0.89388    0.01375    1.000
    N5536    N        0.83797    0.84432    0.07249    1.000
    N5537    N        0.83526    0.78037    0.07237    1.000
    Si5538   Si       0.80375    0.81443    0.07188    1.000
    Si5539   Si       0.74722    0.87710    0.06327    1.000
    N5540    N        0.78544    0.80909    0.11114    1.000
    Si5541   Si       0.75252    0.78324    0.11191    1.000
    Si5542   Si       0.84671    0.86309    0.11208    1.000
    Si5543   Si       0.81231    0.87757    0.05609    1.000
    Si5544   Si       0.86703    0.81472    0.06172    1.000
    N5545    N        0.95400    0.85489    0.08178    1.000
    Si5546   Si       0.94529    0.80975    0.08358    1.000
    N5547    N        0.97797    0.79801    0.10863    1.000
    N5548    N        0.90822    0.82286    0.05444    1.000
    N5549    N        0.83509    0.90408    0.08869    1.000
    N5550    N        0.80618    0.96959    0.08333    1.000
    Si5551   Si       0.79926    0.92884    0.09525    1.000
    N5552    N        0.77829    0.90793    0.06095    1.000
    Si5553   Si       0.82714    0.98904    0.11855    1.000
    N5554    N        0.95642    0.92578    0.08034    1.000
    Si5555   Si       0.96701    0.98640    0.10915    1.000
    N5556    N        0.89256    0.94889    0.08286    1.000
    N5557    N        0.95020    0.00146    0.07185    1.000
    Si5558   Si       0.87683    0.90931    0.08624    1.000
    Si5559   Si       0.96235    0.88917    0.10536    1.000
    Si5560   Si       0.92245    0.93664    0.05345    1.000
    Si5561   Si       0.80833    0.82325    0.14490    1.000
    N5562    N        0.81522    0.86594    0.14233    1.000
    N5563    N        0.85250    0.81941    0.13094    1.000
    N5564    N        0.75243    0.87541    0.16602    1.000
    Si5565   Si       0.88994    0.80727    0.15217    1.000
    Si5566   Si       0.95155    0.77584    0.13897    1.000
    N5567    N        0.91670    0.79712    0.11685    1.000
    Si5568   Si       0.90686    0.88049    0.15427    1.000
    Si5569   Si       0.98218    0.86574    0.16776    1.000
    N5570    N        0.94922    0.88244    0.14484    1.000
    N5571    N        0.89950    0.84304    0.17470    1.000
    Si5572   Si       0.85891    0.94597    0.17469    1.000
    Si5573   Si       0.74750    0.95852    0.15155    1.000
    N5574    N        0.85792    0.96576    0.13561    1.000
    N5575    N        0.79487    0.99482    0.14620    1.000
    N5576    N        0.77436    0.92569    0.13270    1.000
    Si5577   Si       0.79475    0.89485    0.16612    1.000
    Si5578   Si       0.89599    0.97849    0.11471    1.000
    N5579    N        0.88576    0.88103    0.11668    1.000
    N5580    N        0.93513    0.97745    0.13718    1.000
    Si5581   Si       0.83484    0.79560    0.20834    1.000
    Si5582   Si       0.76468    0.79826    0.21170    1.000
    N5583    N        0.79910    0.80348    0.18319    1.000
    Si5584   Si       0.75271    0.85822    0.20525    1.000
    N5585    N        0.84967    0.83419    0.22594    1.000
    N5586    N        0.79390    0.88044    0.20914    1.000
    N5587    N        0.74576    0.75683    0.21460    1.000
    N5588    N        0.86621    0.78377    0.18235    1.000
    Si5589   Si       0.94873    0.80117    0.20724    1.000
    N5590    N        0.96695    0.83867    0.20131    1.000
    Si5591   Si       0.89076    0.84541    0.21758    1.000
    N5592    N        0.92787    0.77820    0.17597    1.000
    N5593    N        0.97716    0.77606    0.23026    1.000
    N5594    N        0.91967    0.87639    0.22882    1.000
    N5595    N        0.85065    0.97983    0.20117    1.000
    Si5596   Si       0.80513    0.97685    0.20057    1.000
    N5597    N        0.76090    0.96900    0.19356    1.000
    N5598    N        0.81955    0.92996    0.18381    1.000
    Si5599   Si       0.81262    0.91574    0.22767    1.000
    N5600    N        0.97579    0.00265    0.19527    1.000
    N5601    N        0.94689    0.94354    0.20304    1.000
    N5602    N        0.88692    0.91347    0.17873    1.000
    Si5603   Si       0.91230    0.91954    0.21580    1.000
    Si5604   Si       0.94172    0.98114    0.18175    1.000
    Si5605   Si       0.98527    0.93004    0.21923    1.000
    Si5606   Si       0.80817    0.77047    0.28046    1.000
    Si5607   Si       0.75319    0.84816    0.27099    1.000
    N5608    N        0.77737    0.82931    0.23905    1.000
    N5609    N        0.76547    0.76584    0.28179    1.000
    N5610    N        0.82207    0.76604    0.23805    1.000
    Si5611   Si       0.81400    0.85460    0.24082    1.000
    Si5612   Si       0.90731    0.79580    0.27421    1.000
    N5613    N        0.93932    0.76635    0.28101    1.000
    Si5614   Si       0.96217    0.86355    0.23869    1.000
    N5615    N        0.98306    0.83451    0.26712    1.000
    N5616    N        0.91531    0.81017    0.23202    1.000
    N5617    N        0.87352    0.77544    0.29112    1.000
    N5618    N        0.82904    0.88890    0.26057    1.000
    N5619    N        0.81084    0.95611    0.24429    1.000
    N5620    N        0.74824    0.99513    0.25623    1.000
    Si5621   Si       0.85310    0.97063    0.24911    1.000
    Si5622   Si       0.77633    0.96449    0.27098    1.000
    N5623    N        0.75531    0.92712    0.28076    1.000
    N5624    N        0.93809    0.94887    0.29314    1.000
    Si5625   Si       0.89521    0.94004    0.28881    1.000
    N5626    N        0.88738    0.93952    0.24495    1.000
    Si5627   Si       0.96700    0.97915    0.27961    1.000
    N5628    N        0.97952    0.90193    0.25215    1.000
    N5629    N        0.84231    0.85394    0.32753    1.000
    Si5630   Si       0.79978    0.83836    0.32851    1.000
    N5631    N        0.77487    0.86438    0.30362    1.000
    N5632    N        0.81417    0.80606    0.30514    1.000
    Si5633   Si       0.85889    0.81257    0.31170    1.000
    Si5634   Si       0.91055    0.86823    0.31540    1.000
    Si5635   Si       0.96989    0.77521    0.30946    1.000
    N5636    N        0.97232    0.81373    0.33145    1.000
    N5637    N        0.95220    0.87884    0.30814    1.000
    Si5638   Si       0.98186    0.84658    0.30886    1.000
    N5639    N        0.89636    0.83203    0.29634    1.000
    N5640    N        0.85621    0.96289    0.29371    1.000
    N5641    N        0.79010    0.98235    0.30899    1.000
    N5642    N        0.81412    0.91855    0.32064    1.000
    Si5643   Si       0.84139    0.89005    0.30198    1.000
    Si5644   Si       0.82436    0.95888    0.32433    1.000
    Si5645   Si       0.77130    0.90747    0.31491    1.000
    N5646    N        0.74076    0.91628    0.34521    1.000
    Si5647   Si       0.96752    0.91640    0.29333    1.000
    N5648    N        0.88190    0.90146    0.30478    1.000
    N5649    N        0.78458    0.83203    0.36787    1.000
    N5650    N        0.84582    0.85227    0.40062    1.000
    Si5651   Si       0.74489    0.81786    0.37257    1.000
    N5652    N        0.74145    0.78952    0.40652    1.000
    Si5653   Si       0.80256    0.84663    0.40467    1.000
    Si5654   Si       0.86179    0.76635    0.37539    1.000
    Si5655   Si       0.86542    0.84392    0.36369    1.000
    N5656    N        0.86608    0.80220    0.35435    1.000
    N5657    N        0.90553    0.86039    0.35928    1.000
    Si5658   Si       0.92833    0.86307    0.39547    1.000
    Si5659   Si       0.98232    0.81487    0.37429    1.000
    N5660    N        0.95813    0.78415    0.39353    1.000
    N5661    N        0.97018    0.85425    0.38814    1.000
    N5662    N        0.82942    0.97317    0.36416    1.000
    Si5663   Si       0.79207    0.98376    0.38766    1.000
    N5664    N        0.77534    0.94647    0.39477    1.000
    Si5665   Si       0.98523    0.94961    0.40283    1.000
    N5666    N        0.79618    0.81750    0.43942    1.000
    Si5667   Si       0.76620    0.78581    0.44358    1.000
    N5668    N        0.77710    0.88084    0.41725    1.000
    Si5669   Si       0.92381    0.79395    0.41666    1.000
    N5670    N        0.91188    0.83401    0.42263    1.000
    N5671    N        0.92357    0.78538    0.46118    1.000
    Si5672   Si       0.88119    0.76395    0.45687    1.000
    Si5673   Si       0.87197    0.87977    0.42647    1.000
    N5674    N        0.88730    0.76797    0.41255    1.000
    Si5675   Si       0.90116    0.82705    0.46670    1.000
    N5676    N        0.88249    0.86714    0.46673    1.000
    Si5677   Si       0.79760    0.92113    0.42139    1.000
    Si5678   Si       0.84800    0.94129    0.45569    1.000
    N5679    N        0.80730    0.95668    0.44872    1.000
    N5680    N        0.84039    0.90976    0.42659    1.000
    Si5681   Si       0.81393    0.00616    0.45291    1.000
    Si5682   Si       0.92677    0.93310    0.43609    1.000
    N5683    N        0.88755    0.95551    0.44556    1.000
    Si5684   Si       0.91800    0.00034    0.41219    1.000
    N5685    N        0.97825    0.91126    0.42749    1.000
    N5686    N        0.90997    0.89903    0.41521    1.000
    N5687    N        0.94289    0.96367    0.40675    1.000
    N5688    N        0.80125    0.78909    0.49870    1.000
    N5689    N        0.82293    0.85559    0.49318    1.000
    N5690    N        0.75054    0.86216    0.50789    1.000
    Si5691   Si       0.82350    0.81759    0.47275    1.000
    Si5692   Si       0.86148    0.88212    0.50136    1.000
    Si5693   Si       0.79193    0.86408    0.52138    1.000
    N5694    N        0.86328    0.80286    0.46828    1.000
    N5695    N        0.91838    0.83182    0.50828    1.000
    Si5696   Si       0.93395    0.86969    0.51893    1.000
    N5697    N        0.97010    0.87768    0.49525    1.000
    N5698    N        0.90638    0.75972    0.52058    1.000
    N5699    N        0.77335    0.00459    0.47148    1.000
    N5700    N        0.85315    0.00071    0.47661    1.000
    N5701    N        0.84604    0.92284    0.49393    1.000
    Si5702   Si       0.77825    0.96213    0.48116    1.000
    N5703    N        0.79565    0.96592    0.52037    1.000
    N5704    N        0.74783    0.93293    0.47957    1.000
    N5705    N        0.90937    0.90420    0.51769    1.000
    Si5706   Si       0.98079    0.91246    0.47116    1.000
    N5707    N        0.94504    0.93540    0.47485    1.000
    N5708    N        0.90184    0.97142    0.51315    1.000
    Si5709   Si       0.89245    0.98563    0.47519    1.000
    Si5710   Si       0.93309    0.94141    0.51617    1.000
    N5711    N        0.79923    0.83322    0.55345    1.000
    Si5712   Si       0.78667    0.79401    0.54104    1.000
    Si5713   Si       0.84196    0.84056    0.56402    1.000
    N5714    N        0.79570    0.76535    0.57209    1.000
    N5715    N        0.86270    0.87218    0.54338    1.000
    N5716    N        0.86399    0.80585    0.54832    1.000
    Si5717   Si       0.90433    0.79937    0.53688    1.000
    N5718    N        0.92970    0.86902    0.56458    1.000
    N5719    N        0.92517    0.80030    0.57703    1.000
    N5720    N        0.84699    0.94609    0.55937    1.000
    Si5721   Si       0.78170    0.98725    0.55624    1.000
    N5722    N        0.79711    0.90217    0.54170    1.000
    Si5723   Si       0.77640    0.91584    0.57913    1.000
    N5724    N        0.76561    0.95796    0.58241    1.000
    Si5725   Si       0.82158    0.93363    0.52620    1.000
    Si5726   Si       0.95858    0.99187    0.57061    1.000
    Si5727   Si       0.89518    0.89644    0.56057    1.000
    N5728    N        0.90871    0.93857    0.57047    1.000
    Si5729   Si       0.88343    0.96907    0.55117    1.000
    N5730    N        0.96464    0.96063    0.53947    1.000
    N5731    N        0.87958    0.00750    0.56872    1.000
    N5732    N        0.76845    0.80679    0.62022    1.000
    Si5733   Si       0.78613    0.83721    0.59475    1.000
    N5734    N        0.82836    0.84426    0.60505    1.000
    N5735    N        0.76374    0.87364    0.59814    1.000
    Si5736   Si       0.77619    0.76561    0.61124    1.000
    Si5737   Si       0.83767    0.87883    0.62997    1.000
    Si5738   Si       0.76735    0.88076    0.64194    1.000
    N5739    N        0.93634    0.85725    0.63225    1.000
    Si5740   Si       0.98019    0.85876    0.63753    1.000
    Si5741   Si       0.93821    0.83848    0.59302    1.000
    Si5742   Si       0.92714    0.76302    0.59926    1.000
    N5743    N        0.98211    0.83446    0.59945    1.000
    N5744    N        0.89308    0.76455    0.62670    1.000
    N5745    N        0.80987    0.91140    0.60766    1.000
    Si5746   Si       0.84700    0.93156    0.59813    1.000
    Si5747   Si       0.74267    0.97993    0.61105    1.000
    N5748    N        0.77041    0.98884    0.64224    1.000
    N5749    N        0.92841    0.92427    0.63906    1.000
    Si5750   Si       0.90403    0.88833    0.63588    1.000
    N5751    N        0.93586    0.98778    0.61029    1.000
    N5752    N        0.86842    0.95970    0.62299    1.000
    N5753    N        0.87349    0.89452    0.60433    1.000
    Si5754   Si       0.97360    0.99789    0.62968    1.000
    Si5755   Si       0.91078    0.95180    0.61258    1.000
    Si5756   Si       0.79254    0.84435    0.68900    1.000
    N5757    N        0.75151    0.84834    0.66644    1.000
    N5758    N        0.78609    0.80079    0.69342    1.000
    Si5759   Si       0.81236    0.76743    0.68267    1.000
    N5760    N        0.85552    0.76543    0.68894    1.000
    N5761    N        0.80679    0.87837    0.66247    1.000
    N5762    N        0.97592    0.78969    0.68043    1.000
    Si5763   Si       0.89324    0.77475    0.67108    1.000
    N5764    N        0.90325    0.81395    0.68611    1.000
    Si5765   Si       0.88014    0.85099    0.69227    1.000
    N5766    N        0.86954    0.88381    0.66482    1.000
    N5767    N        0.82073    0.94285    0.67242    1.000
    Si5768   Si       0.85459    0.97109    0.66436    1.000
    Si5769   Si       0.77772    0.95087    0.66610    1.000
    Si5770   Si       0.83522    0.90281    0.68656    1.000
    N5771    N        0.75368    0.92148    0.64495    1.000
    N5772    N        0.75201    0.95656    0.70269    1.000
    N5773    N        0.96625    0.90771    0.69199    1.000
    Si5774   Si       0.96968    0.92419    0.65354    1.000
    N5775    N        0.88925    0.96555    0.68959    1.000
    N5776    N        0.98822    0.96480    0.65443    1.000
    N5777    N        0.78379    0.85973    0.72935    1.000
    Si5778   Si       0.78067    0.78010    0.73299    1.000
    Si5779   Si       0.82045    0.84305    0.74724    1.000
    N5780    N        0.84019    0.84303    0.70752    1.000
    N5781    N        0.80373    0.80547    0.75891    1.000
    Si5782   Si       0.75235    0.87388    0.75856    1.000
    Si5783   Si       0.94318    0.80392    0.70651    1.000
    N5784    N        0.96301    0.84143    0.71544    1.000
    N5785    N        0.93631    0.78671    0.74554    1.000
    N5786    N        0.90000    0.87709    0.72347    1.000
    N5787    N        0.81410    0.98568    0.72923    1.000
    N5788    N        0.84134    0.91346    0.73002    1.000
    Si5789   Si       0.77145    0.98946    0.72321    1.000
    Si5790   Si       0.82338    0.94898    0.74982    1.000
    N5791    N        0.74943    0.99696    0.75887    1.000
    N5792    N        0.95455    0.89776    0.75641    1.000
    Si5793   Si       0.87145    0.89085    0.75337    1.000
    Si5794   Si       0.90919    0.99181    0.71800    1.000
    Si5795   Si       0.94349    0.88130    0.71939    1.000
    N5796    N        0.92049    0.96537    0.75148    1.000
    Si5797   Si       0.80382    0.78795    0.79866    1.000
    N5798    N        0.84737    0.86190    0.77512    1.000
    Si5799   Si       0.84560    0.87366    0.81515    1.000
    N5800    N        0.77061    0.87752    0.79780    1.000
    N5801    N        0.84356    0.78945    0.81400    1.000
    Si5802   Si       0.93981    0.80637    0.78877    1.000
    N5803    N        0.93794    0.84905    0.79584    1.000
    Si5804   Si       0.97520    0.87256    0.78565    1.000
    N5805    N        0.91037    0.78195    0.80997    1.000
    N5806    N        0.97060    0.78882    0.81353    1.000
    Si5807   Si       0.87425    0.75911    0.79868    1.000
    Si5808   Si       0.91493    0.87631    0.81716    1.000
    Si5809   Si       0.79033    0.91538    0.80558    1.000
    Si5810   Si       0.75696    0.96980    0.79219    1.000
    N5811    N        0.78578    0.94127    0.77153    1.000
    N5812    N        0.85895    0.96295    0.77480    1.000
    N5813    N        0.83093    0.91377    0.81733    1.000
    Si5814   Si       0.93222    0.98783    0.78675    1.000
    Si5815   Si       0.86656    0.00535    0.77305    1.000
    Si5816   Si       0.86698    0.93634    0.80652    1.000
    N5817    N        0.94985    0.95045    0.80464    1.000
    N5818    N        0.89297    0.90528    0.78921    1.000
    Si5819   Si       0.92859    0.92796    0.77335    1.000
    Si5820   Si       0.77668    0.85048    0.83120    1.000
    N5821    N        0.75647    0.86774    0.86582    1.000
    N5822    N        0.81878    0.84917    0.83736    1.000
    Si5823   Si       0.85488    0.82067    0.84241    1.000
    N5824    N        0.77270    0.80808    0.82167    1.000
    N5825    N        0.88061    0.85956    0.83632    1.000
    N5826    N        0.82489    0.98764    0.84819    1.000
    N5827    N        0.76735    0.94123    0.83226    1.000
    Si5828   Si       0.79298    0.96127    0.86388    1.000
    Si5829   Si       0.86646    0.99231    0.86137    1.000
    Si5830   Si       0.95153    0.93989    0.84935    1.000
    N5831    N        0.88201    0.95199    0.84257    1.000
    N5832    N        0.93985    0.89704    0.84761    1.000
    N5833    N        0.80701    0.87070    0.91603    1.000
    N5834    N        0.78671    0.80350    0.92533    1.000
    Si5835   Si       0.80025    0.76292    0.92594    1.000
    Si5836   Si       0.76367    0.88343    0.90896    1.000
    N5837    N        0.86106    0.82119    0.88349    1.000
    N5838    N        0.84388    0.76207    0.91922    1.000
    Si5839   Si       0.74048    0.80930    0.92310    1.000
    N5840    N        0.74365    0.85476    0.93611    1.000
    Si5841   Si       0.86997    0.79718    0.91687    1.000
    N5842    N        0.91170    0.78679    0.91076    1.000
    Si5843   Si       0.94662    0.81759    0.91701    1.000
    N5844    N        0.91928    0.85311    0.90095    1.000
    N5845    N        0.97353    0.83008    0.88589    1.000
    Si5846   Si       0.95395    0.87176    0.88202    1.000
    Si5847   Si       0.88223    0.86150    0.88167    1.000
    N5848    N        0.96961    0.78237    0.93708    1.000
    Si5849   Si       0.83194    0.90677    0.91363    1.000
    N5850    N        0.75279    0.92172    0.92298    1.000
    N5851    N        0.81040    0.92897    0.88565    1.000
    N5852    N        0.75933    0.98315    0.88311    1.000
    Si5853   Si       0.88986    0.94202    0.88458    1.000
    N5854    N        0.87054    0.97696    0.90239    1.000
    N5855    N        0.87116    0.90229    0.89464    1.000
    N5856    N        0.98019    0.89953    0.90161    1.000
    N5857    N        0.93126    0.95326    0.88605    1.000
    Si5858   Si       0.94344    0.97511    0.92002    1.000
    N5859    N        0.80259    0.84339    0.98134    1.000
    N5860    N        0.85824    0.82263    0.94980    1.000
    Si5861   Si       0.81508    0.83376    0.94074    1.000
    N5862    N        0.95945    0.83990    0.95454    1.000
    Si5863   Si       0.94041    0.87126    0.97945    1.000
    Si5864   Si       0.96250    0.80134    0.97786    1.000
    Si5865   Si       0.88258    0.82311    0.98622    1.000
    N5866    N        0.92095    0.80007    0.99042    1.000
    N5867    N        0.89937    0.86157    0.99422    1.000
    Si5868   Si       0.80748    0.88811    0.98548    1.000
    N5869    N        0.85106    0.98878    0.97206    1.000
    N5870    N        0.82808    0.91676    0.95550    1.000
    Si5871   Si       0.84071    0.94980    0.98391    1.000
    N5872    N        0.76627    0.90072    0.99476    1.000
    Si5873   Si       0.87759    0.99570    0.93958    1.000
    N5874    N        0.94049    0.91198    0.96524    1.000
    N5875    N        0.97948    0.96045    0.94103    1.000
    Si5876   Si       0.91613    0.94420    0.98175    1.000
    N5877    N        0.91436    0.97463    0.95124    1.000
    Si5878   Si       0.97944    0.91664    0.94263    1.000
    N5879    N        0.87658    0.93107    0.99738    1.000
