# CIF file generated by openbabel 3.1.1, see https://openbabel.org
data_I
_chemical_name_common '3.01-22.aims'
_cell_length_a 39.9208
_cell_length_b 39.9208
_cell_length_c 39.9208
_cell_angle_alpha 90
_cell_angle_beta 90
_cell_angle_gamma 90
loop_
    _atom_site_label
    _atom_site_type_symbol
    _atom_site_fract_x
    _atom_site_fract_y
    _atom_site_fract_z
    _atom_site_occupancy
    N0       N        0.01248    0.08129    0.10212    1.000
    N1       N        0.99633    0.11982    0.04787    1.000
    N2       N        0.00044    0.00737    0.11613    1.000
    Si3      Si       0.01763    0.11894    0.12407    1.000
    N4       N        0.04628    0.14997    0.11050    1.000
    Si5      Si       0.02543    0.14262    0.02350    1.000
    N6       N        0.99336    0.17283    0.01298    1.000
    N7       N        0.98531    0.25290    0.00166    1.000
    Si8      Si       0.00907    0.11692    0.20480    1.000
    Si9      Si       0.00374    0.04846    0.13055    1.000
    N10      N        0.03350    0.04382    0.16095    1.000
    N11      N        0.03604    0.08266    0.22136    1.000
    N12      N        0.02850    0.11095    0.16616    1.000
    Si13     Si       0.03520    0.00540    0.18074    1.000
    N14      N        0.00808    0.15778    0.21733    1.000
    Si15     Si       0.02088    0.19779    0.20010    1.000
    N16      N        0.01861    0.19336    0.15602    1.000
    N17      N        0.01632    0.03842    0.27270    1.000
    Si18     Si       0.02575    0.08094    0.26134    1.000
    N19      N        0.99647    0.11092    0.26812    1.000
    Si20     Si       0.05136    0.03801    0.29880    1.000
    Si21     Si       0.99877    0.14129    0.29909    1.000
    N22      N        0.01185    0.21639    0.32944    1.000
    Si23     Si       0.00043    0.24923    0.35811    1.000
    N24      N        0.03839    0.14605    0.31373    1.000
    Si25     Si       0.04388    0.18948    0.32140    1.000
    Si26     Si       0.00948    0.08553    0.42631    1.000
    Si27     Si       0.03648    0.04455    0.48539    1.000
    N28      N        0.01168    0.04701    0.44622    1.000
    N29      N        0.99573    0.11630    0.45311    1.000
    N30      N        0.05099    0.09522    0.41663    1.000
    N31      N        0.00068    0.19178    0.45613    1.000
    N32      N        0.03545    0.15029    0.38282    1.000
    Si33     Si       0.01767    0.22240    0.42805    1.000
    N34      N        0.02603    0.10411    0.55788    1.000
    Si35     Si       0.01397    0.06471    0.54752    1.000
    Si36     Si       0.00603    0.02735    0.59477    1.000
    N37      N        0.00261    0.06520    0.50501    1.000
    N38      N        0.03866    0.03379    0.56530    1.000
    N39      N        0.01020    0.22474    0.52611    1.000
    Si40     Si       0.03121    0.19248    0.54841    1.000
    N41      N        0.00201    0.17096    0.57161    1.000
    Si42     Si       0.02255    0.03145    0.67393    1.000
    N43      N        0.01451    0.04656    0.63201    1.000
    N44      N        0.03152    0.12413    0.63878    1.000
    N45      N        0.00353    0.03817    0.71135    1.000
    Si46     Si       0.03818    0.01962    0.73559    1.000
    Si47     Si       0.04401    0.08185    0.63473    1.000
    Si48     Si       0.04374    0.19466    0.68936    1.000
    Si49     Si       0.99648    0.14011    0.66042    1.000
    Si50     Si       0.02165    0.13784    0.73080    1.000
    N51      N        0.01251    0.22399    0.68603    1.000
    N52      N        0.01606    0.15961    0.69374    1.000
    N53      N        0.03070    0.03810    0.81547    1.000
    N54      N        0.02002    0.10856    0.85793    1.000
    N55      N        0.02032    0.16854    0.76324    1.000
    N56      N        0.01121    0.05886    0.90742    1.000
    Si57     Si       0.03475    0.09256    0.89650    1.000
    Si58     Si       0.02763    0.04325    0.94482    1.000
    N59      N        0.02171    0.11478    0.98983    1.000
    N60      N        0.01460    0.12450    0.92143    1.000
    Si61     Si       0.04497    0.12168    0.95422    1.000
    N62      N        0.99397    0.05691    0.97103    1.000
    Si63     Si       0.99268    0.01482    0.89636    1.000
    Si64     Si       0.99136    0.21291    0.91356    1.000
    N65      N        0.01861    0.25008    0.90917    1.000
    N66      N        0.00948    0.18800    0.88224    1.000
    N67      N        0.00490    0.21004    0.95457    1.000
    Si68     Si       0.03360    0.24248    0.95018    1.000
    Si69     Si       0.02098    0.35139    0.03048    1.000
    N70      N        0.02312    0.30702    0.02820    1.000
    Si71     Si       0.03125    0.27284    0.05361    1.000
    N72      N        0.01243    0.38131    0.99856    1.000
    N73      N        0.99223    0.26061    0.07074    1.000
    Si74     Si       0.02434    0.47099    0.05846    1.000
    N75      N        0.01452    0.44410    0.09018    1.000
    N76      N        0.00361    0.45414    0.02389    1.000
    Si77     Si       0.02144    0.42344    0.99836    1.000
    Si78     Si       0.04852    0.42815    0.11240    1.000
    Si79     Si       0.03928    0.28693    0.13171    1.000
    N80      N        0.99721    0.27364    0.14045    1.000
    Si81     Si       0.02571    0.37098    0.12652    1.000
    N82      N        0.03362    0.33007    0.13389    1.000
    Si83     Si       0.02669    0.41731    0.19095    1.000
    N84      N        0.03623    0.40917    0.15015    1.000
    N85      N        0.03016    0.45339    0.21664    1.000
    Si86     Si       0.00139    0.48263    0.21292    1.000
    N87      N        0.01638    0.32845    0.28280    1.000
    N88      N        0.03170    0.34592    0.34971    1.000
    N89      N        0.03537    0.27534    0.35876    1.000
    N90      N        0.03279    0.26371    0.25911    1.000
    Si91     Si       0.04558    0.30513    0.25840    1.000
    Si92     Si       0.03146    0.38468    0.37112    1.000
    N93      N        0.00546    0.41647    0.34989    1.000
    N94      N        0.99496    0.42037    0.26353    1.000
    N95      N        0.99439    0.46919    0.31192    1.000
    Si96     Si       0.00931    0.50664    0.33105    1.000
    Si97     Si       0.03646    0.42660    0.24984    1.000
    Si98     Si       0.02443    0.31457    0.37833    1.000
    N99      N        0.99851    0.32181    0.46104    1.000
    N100     N        0.01277    0.37823    0.41130    1.000
    N101     N        0.02175    0.26647    0.43022    1.000
    Si102    Si       0.98967    0.45144    0.37324    1.000
    Si103    Si       0.02015    0.46817    0.44704    1.000
    N104     N        0.04354    0.49860    0.42891    1.000
    N105     N        0.99744    0.44386    0.41587    1.000
    N106     N        0.00213    0.46488    0.48643    1.000
    N107     N        0.00687    0.48928    0.37060    1.000
    Si108    Si       0.01038    0.40979    0.43939    1.000
    Si109    Si       0.01531    0.29118    0.61131    1.000
    N110     N        0.99889    0.30333    0.53613    1.000
    Si111    Si       0.01291    0.32944    0.50307    1.000
    Si112    Si       0.99331    0.26090    0.54246    1.000
    N113     N        0.01595    0.26007    0.58072    1.000
    N114     N        0.03516    0.37833    0.50420    1.000
    Si115    Si       0.01901    0.39008    0.59849    1.000
    N116     N        0.01540    0.43396    0.59777    1.000
    Si117    Si       0.03423    0.47564    0.51453    1.000
    N118     N        0.02299    0.49674    0.55337    1.000
    Si119    Si       0.04038    0.46122    0.57509    1.000
    Si120    Si       0.99493    0.39420    0.50813    1.000
    N121     N        0.01889    0.29020    0.72492    1.000
    N122     N        0.01484    0.28031    0.65179    1.000
    Si123    Si       0.00352    0.26514    0.69195    1.000
    N124     N        0.04314    0.38015    0.63228    1.000
    N125     N        0.03629    0.40542    0.70105    1.000
    Si126    Si       0.99347    0.39396    0.68987    1.000
    Si127    Si       0.01481    0.43351    0.72898    1.000
    Si128    Si       0.02168    0.47509    0.66446    1.000
    N129     N        0.01010    0.47092    0.70614    1.000
    N130     N        0.99097    0.48436    0.63571    1.000
    Si131    Si       0.00917    0.29838    0.82029    1.000
    N132     N        0.02354    0.28809    0.86196    1.000
    N133     N        0.00418    0.34203    0.81010    1.000
    Si134    Si       0.04423    0.34281    0.78809    1.000
    N135     N        0.03015    0.44060    0.76977    1.000
    N136     N        0.01533    0.47011    0.83251    1.000
    Si137    Si       0.99662    0.44509    0.80082    1.000
    Si138    Si       0.01071    0.43013    0.86474    1.000
    N139     N        0.99207    0.41263    0.82860    1.000
    Si140    Si       0.98927    0.49294    0.86096    1.000
    N141     N        0.02875    0.34700    0.93270    1.000
    N142     N        0.03285    0.28333    0.96267    1.000
    Si143    Si       0.99879    0.35952    0.96269    1.000
    Si144    Si       0.00182    0.28995    0.99267    1.000
    Si145    Si       0.04440    0.38217    0.90863    1.000
    N146     N        0.02175    0.43969    0.95595    1.000
    Si147    Si       0.99063    0.46042    0.93422    1.000
    N148     N        0.99312    0.46014    0.89097    1.000
    N149     N        0.00735    0.39545    0.88965    1.000
    N150     N        0.01257    0.57657    0.08154    1.000
    N151     N        0.00236    0.62515    0.01700    1.000
    Si152    Si       0.03961    0.54567    0.06950    1.000
    Si153    Si       0.99595    0.52924    0.01967    1.000
    N154     N        0.01450    0.51362    0.05562    1.000
    Si155    Si       0.99033    0.59870    0.04961    1.000
    Si156    Si       0.01518    0.71739    0.07751    1.000
    Si157    Si       0.02019    0.66055    0.03331    1.000
    N158     N        0.03701    0.64497    0.07124    1.000
    Si159    Si       0.99773    0.65091    0.09765    1.000
    N160     N        0.04477    0.67844    0.00284    1.000
    N161     N        0.99226    0.68649    0.05418    1.000
    Si162    Si       0.99450    0.58197    0.12229    1.000
    N163     N        0.01024    0.62259    0.13126    1.000
    N164     N        0.01999    0.52534    0.21293    1.000
    N165     N        0.01497    0.55521    0.15074    1.000
    Si166    Si       0.99130    0.53452    0.18077    1.000
    N167     N        0.04856    0.61755    0.19527    1.000
    N168     N        0.99633    0.74068    0.16365    1.000
    N169     N        0.03221    0.70539    0.11813    1.000
    Si170    Si       0.03565    0.63900    0.16136    1.000
    Si171    Si       0.99963    0.70106    0.14666    1.000
    N172     N        0.00702    0.72808    0.22685    1.000
    N173     N        0.01619    0.67504    0.17857    1.000
    Si174    Si       0.03399    0.70168    0.20574    1.000
    Si175    Si       0.04512    0.63430    0.23659    1.000
    N176     N        0.02676    0.54063    0.27976    1.000
    Si177    Si       0.00073    0.57424    0.35704    1.000
    N178     N        0.04291    0.57665    0.34532    1.000
    Si179    Si       0.99498    0.53511    0.25119    1.000
    N180     N        0.00597    0.63040    0.25420    1.000
    N181     N        0.02977    0.65060    0.31948    1.000
    Si182    Si       0.00398    0.72827    0.26972    1.000
    Si183    Si       0.02405    0.67057    0.35744    1.000
    Si184    Si       0.99729    0.65079    0.29135    1.000
    N185     N        0.04512    0.73178    0.28543    1.000
    N186     N        0.99500    0.70215    0.35152    1.000
    N187     N        0.01653    0.59966    0.47252    1.000
    N188     N        0.99849    0.55367    0.39487    1.000
    Si189    Si       0.04036    0.56629    0.49015    1.000
    Si190    Si       0.01137    0.51428    0.40308    1.000
    Si191    Si       0.03917    0.63299    0.48836    1.000
    N192     N        0.01660    0.73248    0.43544    1.000
    Si193    Si       0.01987    0.69983    0.46439    1.000
    Si194    Si       0.04172    0.64955    0.41372    1.000
    N195     N        0.03943    0.66259    0.45439    1.000
    N196     N        0.00700    0.64831    0.39060    1.000
    N197     N        0.03099    0.57382    0.53586    1.000
    Si198    Si       0.01008    0.53423    0.53752    1.000
    N199     N        0.99012    0.61351    0.58667    1.000
    Si200    Si       0.99163    0.59548    0.54554    1.000
    N201     N        0.01126    0.53105    0.49565    1.000
    N202     N        0.02240    0.65080    0.52428    1.000
    N203     N        0.02739    0.67723    0.58517    1.000
    Si204    Si       0.03597    0.71949    0.59526    1.000
    Si205    Si       0.98875    0.65834    0.59490    1.000
    N206     N        0.00229    0.73018    0.61939    1.000
    N207     N        0.04048    0.51723    0.67261    1.000
    N208     N        0.02529    0.58637    0.67438    1.000
    Si209    Si       0.01777    0.51543    0.71020    1.000
    Si210    Si       0.02955    0.55421    0.64649    1.000
    Si211    Si       0.03761    0.62878    0.67842    1.000
    N212     N        0.04250    0.52620    0.74372    1.000
    Si213    Si       0.99138    0.62820    0.74077    1.000
    N214     N        0.99085    0.55257    0.62792    1.000
    Si215    Si       0.99934    0.70468    0.65595    1.000
    N216     N        0.00025    0.64053    0.69840    1.000
    N217     N        0.03739    0.69514    0.67649    1.000
    N218     N        0.98386    0.66897    0.63550    1.000
    N219     N        0.02785    0.55997    0.80383    1.000
    N220     N        0.01542    0.60071    0.86181    1.000
    N221     N        0.00695    0.53328    0.86659    1.000
    Si222    Si       0.02943    0.51769    0.78559    1.000
    Si223    Si       0.00223    0.56489    0.83736    1.000
    N224     N        0.02182    0.62679    0.77399    1.000
    Si225    Si       0.00546    0.69649    0.85319    1.000
    Si226    Si       0.02940    0.73447    0.76132    1.000
    N227     N        0.00545    0.67865    0.81359    1.000
    Si228    Si       0.03578    0.66623    0.78506    1.000
    N229     N        0.02838    0.69236    0.75017    1.000
    N230     N        0.99138    0.75474    0.76916    1.000
    N231     N        0.00488    0.56852    0.92783    1.000
    Si232    Si       0.01271    0.52942    0.95004    1.000
    Si233    Si       0.03146    0.55440    0.89542    1.000
    N234     N        0.02740    0.53333    0.98963    1.000
    N235     N        0.04270    0.51801    0.91986    1.000
    Si236    Si       0.02934    0.73157    0.94307    1.000
    N237     N        0.99061    0.72094    0.92641    1.000
    N238     N        0.02644    0.74039    0.98707    1.000
    Si239    Si       0.04284    0.66717    0.95994    1.000
    N240     N        0.00114    0.65758    0.95303    1.000
    N241     N        0.99221    0.66643    0.88006    1.000
    N242     N        0.01077    0.85014    0.01647    1.000
    N243     N        0.98962    0.82858    0.08683    1.000
    Si244    Si       0.02028    0.96376    0.03239    1.000
    N245     N        0.01329    0.89375    0.09290    1.000
    N246     N        0.03062    0.96207    0.07725    1.000
    N247     N        0.02090    0.99555    0.00300    1.000
    Si248    Si       0.04096    0.98930    0.10819    1.000
    Si249    Si       0.04430    0.91844    0.06882    1.000
    N250     N        0.99276    0.79941    0.21314    1.000
    N251     N        0.03562    0.85079    0.21689    1.000
    N252     N        0.03695    0.77687    0.12952    1.000
    Si253    Si       0.99794    0.84221    0.19734    1.000
    Si254    Si       0.03214    0.87262    0.12674    1.000
    N255     N        0.01020    0.84613    0.15446    1.000
    Si256    Si       0.99394    0.76907    0.12987    1.000
    N257     N        0.03349    0.97062    0.24004    1.000
    N258     N        0.99620    0.00182    0.19580    1.000
    N259     N        0.04145    0.97405    0.15168    1.000
    Si260    Si       0.99187    0.97300    0.22776    1.000
    Si261    Si       0.01064    0.87460    0.28362    1.000
    Si262    Si       0.99983    0.79879    0.25700    1.000
    N263     N        0.04113    0.79630    0.26821    1.000
    N264     N        0.00271    0.89010    0.32277    1.000
    Si265    Si       0.03071    0.92152    0.33046    1.000
    N266     N        0.01825    0.94957    0.35923    1.000
    N267     N        0.00283    0.90713    0.25481    1.000
    Si268    Si       0.03995    0.92838    0.25304    1.000
    Si269    Si       0.03952    0.98953    0.36558    1.000
    Si270    Si       0.02882    0.81500    0.37327    1.000
    Si271    Si       0.99621    0.76411    0.41593    1.000
    N272     N        0.02478    0.79908    0.41329    1.000
    N273     N        0.01265    0.81492    0.47968    1.000
    Si274    Si       0.04187    0.81521    0.44984    1.000
    N275     N        0.00480    0.87686    0.43413    1.000
    Si276    Si       0.04390    0.87476    0.41512    1.000
    N277     N        0.00298    0.00914    0.38050    1.000
    N278     N        0.03916    0.98366    0.42731    1.000
    N279     N        0.03742    0.94045    0.47913    1.000
    Si280    Si       0.00311    0.00958    0.42328    1.000
    Si281    Si       0.02656    0.94193    0.43747    1.000
    N282     N        0.00094    0.99666    0.48873    1.000
    Si283    Si       0.00773    0.82668    0.59324    1.000
    N284     N        0.02833    0.79093    0.59813    1.000
    Si285    Si       0.01385    0.80590    0.52236    1.000
    N286     N        0.99836    0.83806    0.55114    1.000
    N287     N        0.01969    0.86227    0.61408    1.000
    N288     N        0.04315    0.87952    0.52107    1.000
    Si289    Si       0.00194    0.88011    0.53826    1.000
    N290     N        0.98792    0.77414    0.53200    1.000
    N291     N        0.03391    0.96185    0.54260    1.000
    Si292    Si       0.02359    0.90543    0.60643    1.000
    N293     N        0.99979    0.91075    0.57102    1.000
    N294     N        0.99985    0.98505    0.59735    1.000
    Si295    Si       0.99717    0.95401    0.56524    1.000
    Si296    Si       0.03705    0.97720    0.50366    1.000
    Si297    Si       0.99747    0.77295    0.62507    1.000
    N298     N        0.00274    0.80845    0.72935    1.000
    Si299    Si       0.00077    0.81889    0.68772    1.000
    Si300    Si       0.03884    0.86210    0.65357    1.000
    N301     N        0.99255    0.77947    0.66740    1.000
    N302     N        0.04200    0.82265    0.66668    1.000
    N303     N        0.00704    0.87445    0.68537    1.000
    N304     N        0.01124    0.98737    0.66689    1.000
    N305     N        0.00878    0.92752    0.64080    1.000
    Si306    Si       0.99214    0.96714    0.63534    1.000
    Si307    Si       0.00866    0.92000    0.68413    1.000
    N308     N        0.04381    0.93503    0.70258    1.000
    N309     N        0.02033    0.78901    0.84865    1.000
    N310     N        0.00525    0.86055    0.77800    1.000
    Si311    Si       0.04092    0.85080    0.79848    1.000
    N312     N        0.04114    0.85819    0.84182    1.000
    Si313    Si       0.01982    0.82907    0.86520    1.000
    Si314    Si       0.04288    0.79984    0.74520    1.000
    N315     N        0.02662    0.98762    0.76179    1.000
    N316     N        0.01847    0.99366    0.86885    1.000
    Si317    Si       0.00162    0.77905    0.99111    1.000
    N318     N        0.03826    0.83258    0.90563    1.000
    Si319    Si       0.01728    0.80073    0.92539    1.000
    N320     N        0.00511    0.81420    0.96491    1.000
    Si321    Si       0.99275    0.85354    0.97608    1.000
    N322     N        0.01738    0.87908    0.95149    1.000
    N323     N        0.04659    0.77102    0.93651    1.000
    N324     N        0.01005    0.00580    0.93722    1.000
    Si325    Si       0.99933    0.95411    0.87688    1.000
    N326     N        0.02095    0.93313    0.90568    1.000
    Si327    Si       0.99724    0.91352    0.93904    1.000
    N328     N        0.98786    0.94480    0.96689    1.000
    Si329    Si       0.01959    0.97484    0.96394    1.000
    N330     N        0.08572    0.09661    0.10136    1.000
    Si331    Si       0.08908    0.05789    0.08528    1.000
    N332     N        0.07086    0.02298    0.10074    1.000
    N333     N        0.10302    0.05949    0.04395    1.000
    Si334    Si       0.07549    0.13569    0.08201    1.000
    N335     N        0.06369    0.14244    0.04139    1.000
    Si336    Si       0.09147    0.14490    0.00588    1.000
    Si337    Si       0.08550    0.22942    0.01200    1.000
    Si338    Si       0.07780    0.23944    0.08113    1.000
    N339     N        0.05491    0.23767    0.04163    1.000
    N340     N        0.10287    0.18909    0.01399    1.000
    N341     N        0.09513    0.06834    0.16797    1.000
    N342     N        0.07112    0.01165    0.20617    1.000
    Si343    Si       0.05373    0.07729    0.18150    1.000
    Si344    Si       0.10574    0.03509    0.19264    1.000
    N345     N        0.07815    0.21674    0.11948    1.000
    Si346    Si       0.10068    0.24227    0.14896    1.000
    Si347    Si       0.05628    0.17971    0.13893    1.000
    N348     N        0.05784    0.21413    0.21493    1.000
    Si349    Si       0.09330    0.19011    0.20427    1.000
    N350     N        0.08255    0.16687    0.17091    1.000
    N351     N        0.07759    0.09303    0.35488    1.000
    Si352    Si       0.07016    0.11283    0.31604    1.000
    Si353    Si       0.08125    0.04875    0.36255    1.000
    N354     N        0.08188    0.01719    0.27558    1.000
    N355     N        0.05667    0.07955    0.29121    1.000
    N356     N        0.05261    0.02407    0.33954    1.000
    N357     N        0.07694    0.19552    0.35140    1.000
    N358     N        0.06303    0.20153    0.28295    1.000
    Si359    Si       0.06281    0.23321    0.25337    1.000
    Si360    Si       0.09949    0.17678    0.28133    1.000
    N361     N        0.09919    0.25682    0.25420    1.000
    N362     N        0.10366    0.13700    0.30179    1.000
    N363     N        0.09334    0.25586    0.32390    1.000
    N364     N        0.07028    0.06824    0.47457    1.000
    Si365    Si       0.06786    0.12060    0.38673    1.000
    Si366    Si       0.08083    0.06817    0.43230    1.000
    N367     N        0.07847    0.03530    0.40515    1.000
    N368     N        0.09851    0.13512    0.47747    1.000
    Si369    Si       0.06750    0.18128    0.39059    1.000
    N370     N        0.05941    0.20949    0.42186    1.000
    N371     N        0.08222    0.20307    0.48966    1.000
    Si372    Si       0.08642    0.22416    0.45287    1.000
    N373     N        0.09612    0.14966    0.40114    1.000
    N374     N        0.07464    0.08548    0.60448    1.000
    N375     N        0.09881    0.10554    0.53756    1.000
    Si376    Si       0.06514    0.12289    0.56026    1.000
    Si377    Si       0.07243    0.01174    0.54988    1.000
    Si378    Si       0.10204    0.05177    0.60155    1.000
    Si379    Si       0.09844    0.09454    0.49407    1.000
    N380     N        0.06188    0.01150    0.50689    1.000
    N381     N        0.07223    0.25640    0.62274    1.000
    Si382    Si       0.08666    0.16440    0.50693    1.000
    N383     N        0.06256    0.20890    0.57333    1.000
    N384     N        0.07955    0.14679    0.59519    1.000
    Si385    Si       0.09593    0.18183    0.57678    1.000
    Si386    Si       0.05901    0.25179    0.58086    1.000
    N387     N        0.05296    0.15715    0.53379    1.000
    N388     N        0.05335    0.06934    0.67526    1.000
    N389     N        0.08841    0.02802    0.63549    1.000
    Si390    Si       0.09214    0.03583    0.67871    1.000
    N391     N        0.06256    0.12054    0.73076    1.000
    Si392    Si       0.06751    0.08067    0.71645    1.000
    N393     N        0.05968    0.00964    0.69835    1.000
    N394     N        0.10420    0.13132    0.65125    1.000
    N395     N        0.11058    0.06571    0.70629    1.000
    N396     N        0.06734    0.20516    0.72295    1.000
    Si397    Si       0.06593    0.14807    0.63742    1.000
    N398     N        0.06818    0.19026    0.65380    1.000
    Si399    Si       0.09247    0.22108    0.63711    1.000
    N400     N        0.09490    0.05053    0.80923    1.000
    N401     N        0.06144    0.10712    0.79987    1.000
    Si402    Si       0.08533    0.12448    0.76732    1.000
    Si403    Si       0.05648    0.12035    0.83999    1.000
    Si404    Si       0.05825    0.06298    0.79266    1.000
    N405     N        0.05477    0.05780    0.75022    1.000
    Si406    Si       0.09996    0.06169    0.85031    1.000
    Si407    Si       0.10520    0.00884    0.79954    1.000
    Si408    Si       0.05047    0.01079    0.84399    1.000
    N409     N        0.07624    0.09446    0.86729    1.000
    Si410    Si       0.09078    0.23416    0.82330    1.000
    N411     N        0.06727    0.23361    0.85877    1.000
    N412     N        0.06566    0.22914    0.78885    1.000
    N413     N        0.06867    0.16178    0.84671    1.000
    N414     N        0.08738    0.16472    0.78095    1.000
    Si415    Si       0.05719    0.19289    0.76445    1.000
    Si416    Si       0.10318    0.16573    0.82027    1.000
    Si417    Si       0.05378    0.19338    0.87372    1.000
    N418     N        0.08163    0.02710    0.87054    1.000
    Si419    Si       0.09683    0.06655    0.96005    1.000
    N420     N        0.06760    0.03162    0.95712    1.000
    N421     N        0.06652    0.09259    0.93004    1.000
    Si422    Si       0.10186    0.09870    0.90430    1.000
    N423     N        0.09525    0.10255    0.98662    1.000
    N424     N        0.07069    0.22752    0.96999    1.000
    N425     N        0.07073    0.19058    0.91130    1.000
    N426     N        0.06705    0.15564    0.96929    1.000
    Si427    Si       0.08714    0.18908    0.95051    1.000
    N428     N        0.06445    0.36306    0.03403    1.000
    N429     N        0.05304    0.27409    0.09274    1.000
    Si430    Si       0.08160    0.37648    0.06923    1.000
    Si431    Si       0.09451    0.36373    0.00067    1.000
    N432     N        0.05073    0.38459    0.09533    1.000
    Si433    Si       0.08804    0.44576    0.03569    1.000
    N434     N        0.06790    0.47558    0.05935    1.000
    Si435    Si       0.08977    0.49746    0.09039    1.000
    N436     N        0.06494    0.43425    0.99966    1.000
    N437     N        0.10050    0.41436    0.06229    1.000
    N438     N        0.07182    0.27468    0.15716    1.000
    Si439    Si       0.08295    0.30761    0.18300    1.000
    Si440    Si       0.07346    0.36053    0.21511    1.000
    N441     N        0.08934    0.35080    0.17557    1.000
    N442     N        0.05906    0.31747    0.22077    1.000
    N443     N        0.09447    0.49982    0.23659    1.000
    N444     N        0.04684    0.39119    0.22258    1.000
    N445     N        0.07371    0.46329    0.12218    1.000
    Si446    Si       0.09361    0.48559    0.15303    1.000
    N447     N        0.07938    0.31684    0.28750    1.000
    Si448    Si       0.08034    0.27786    0.35888    1.000
    N449     N        0.07230    0.37736    0.30440    1.000
    N450     N        0.10174    0.31489    0.35501    1.000
    Si451    Si       0.10438    0.28006    0.28948    1.000
    Si452    Si       0.10372    0.35583    0.28324    1.000
    Si453    Si       0.04820    0.33968    0.31102    1.000
    N454     N        0.07964    0.44066    0.34867    1.000
    N455     N        0.06450    0.44210    0.27775    1.000
    Si456    Si       0.08313    0.48290    0.34197    1.000
    Si457    Si       0.08494    0.42048    0.30842    1.000
    Si458    Si       0.09497    0.47092    0.26953    1.000
    Si459    Si       0.07211    0.36097    0.49068    1.000
    Si460    Si       0.06391    0.28175    0.42762    1.000
    N461     N        0.05724    0.31830    0.40769    1.000
    Si462    Si       0.09192    0.34247    0.38778    1.000
    N463     N        0.09203    0.37970    0.45866    1.000
    N464     N        0.08192    0.26593    0.46503    1.000
    N465     N        0.09394    0.26570    0.39850    1.000
    N466     N        0.07620    0.38115    0.38014    1.000
    N467     N        0.05658    0.32002    0.49578    1.000
    N468     N        0.06971    0.49382    0.49446    1.000
    Si469    Si       0.08619    0.42222    0.45520    1.000
    Si470    Si       0.09927    0.41713    0.37967    1.000
    N471     N        0.04491    0.43142    0.45454    1.000
    Si472    Si       0.06850    0.35417    0.60366    1.000
    N473     N        0.08132    0.27064    0.54856    1.000
    Si474    Si       0.08266    0.28358    0.50411    1.000
    N475     N        0.05205    0.31572    0.61216    1.000
    N476     N        0.09861    0.37858    0.52066    1.000
    N477     N        0.04863    0.37453    0.57042    1.000
    N478     N        0.08024    0.47346    0.59201    1.000
    Si479    Si       0.05972    0.39785    0.53579    1.000
    N480     N        0.04776    0.43959    0.53568    1.000
    N481     N        0.09166    0.37990    0.68356    1.000
    N482     N        0.06941    0.31626    0.68107    1.000
    Si483    Si       0.05709    0.31068    0.72268    1.000
    Si484    Si       0.05860    0.29115    0.64732    1.000
    N485     N        0.04853    0.34745    0.74477    1.000
    N486     N        0.08920    0.29088    0.74267    1.000
    Si487    Si       0.06054    0.40634    0.66187    1.000
    Si488    Si       0.06759    0.38100    0.72102    1.000
    N489     N        0.05401    0.44937    0.65397    1.000
    Si490    Si       0.09094    0.46181    0.63178    1.000
    Si491    Si       0.07502    0.27164    0.77910    1.000
    N492     N        0.06761    0.37313    0.80887    1.000
    Si493    Si       0.10356    0.38452    0.78678    1.000
    N494     N        0.04782    0.29999    0.79642    1.000
    Si495    Si       0.07385    0.39754    0.84517    1.000
    N496     N        0.08478    0.43626    0.81457    1.000
    Si497    Si       0.06160    0.46862    0.83921    1.000
    Si498    Si       0.07361    0.44108    0.77346    1.000
    N499     N        0.06606    0.49731    0.80220    1.000
    N500     N        0.05486    0.43043    0.86716    1.000
    N501     N        0.08894    0.40470    0.75070    1.000
    Si502    Si       0.10663    0.49664    0.78667    1.000
    N503     N        0.06319    0.36136    0.87397    1.000
    N504     N        0.08226    0.32975    0.97719    1.000
    N505     N        0.07263    0.29767    0.90771    1.000
    Si506    Si       0.09328    0.33187    0.88459    1.000
    Si507    Si       0.05749    0.31504    0.94331    1.000
    Si508    Si       0.05147    0.26477    0.88468    1.000
    N509     N        0.08227    0.49297    0.86911    1.000
    Si510    Si       0.06590    0.43848    0.95605    1.000
    N511     N        0.07221    0.40193    0.93195    1.000
    Si512    Si       0.08005    0.49857    0.91197    1.000
    N513     N        0.09283    0.46631    0.93866    1.000
    N514     N        0.06392    0.53288    0.10219    1.000
    N515     N        0.06819    0.56079    0.03962    1.000
    N516     N        0.09757    0.59639    0.08522    1.000
    Si517    Si       0.06813    0.54671    0.00023    1.000
    N518     N        0.09338    0.62647    0.02585    1.000
    N519     N        0.10474    0.52058    0.99571    1.000
    Si520    Si       0.07848    0.63184    0.06639    1.000
    N521     N        0.09604    0.66832    0.08298    1.000
    Si522    Si       0.08743    0.74114    0.07739    1.000
    Si523    Si       0.05389    0.72022    0.01388    1.000
    N524     N        0.09145    0.74092    0.99762    1.000
    Si525    Si       0.07034    0.68682    0.11434    1.000
    N526     N        0.05198    0.72568    0.05598    1.000
    Si527    Si       0.05715    0.54712    0.14375    1.000
    Si528    Si       0.06472    0.52576    0.21519    1.000
    Si529    Si       0.09071    0.59143    0.19188    1.000
    N530     N        0.07688    0.56551    0.22509    1.000
    N531     N        0.08306    0.58148    0.14993    1.000
    N532     N        0.07213    0.51891    0.17290    1.000
    N533     N        0.11008    0.63034    0.20103    1.000
    N534     N        0.10275    0.72245    0.24150    1.000
    N535     N        0.09175    0.72893    0.11976    1.000
    Si536    Si       0.05266    0.73755    0.14182    1.000
    Si537    Si       0.09452    0.74404    0.20483    1.000
    N538     N        0.06130    0.72710    0.18342    1.000
    N539     N        0.07269    0.65729    0.14587    1.000
    N540     N        0.05277    0.67640    0.23687    1.000
    N541     N        0.06900    0.61829    0.27090    1.000
    Si542    Si       0.09275    0.58197    0.26256    1.000
    N543     N        0.09161    0.55564    0.29632    1.000
    N544     N        0.09417    0.62205    0.34478    1.000
    Si545    Si       0.05250    0.54914    0.31235    1.000
    N546     N        0.05240    0.51166    0.33255    1.000
    Si547    Si       0.07545    0.59151    0.37058    1.000
    Si548    Si       0.07106    0.64074    0.30948    1.000
    Si549    Si       0.07359    0.70284    0.26551    1.000
    N550     N        0.09030    0.67862    0.29666    1.000
    N551     N        0.09174    0.72925    0.34534    1.000
    N552     N        0.06382    0.61220    0.40947    1.000
    Si553    Si       0.08862    0.58613    0.43344    1.000
    N554     N        0.06943    0.55783    0.45868    1.000
    N555     N        0.10124    0.56380    0.39440    1.000
    Si556    Si       0.07421    0.51420    0.45434    1.000
    N557     N        0.06013    0.67607    0.38212    1.000
    Si558    Si       0.09567    0.70064    0.38797    1.000
    N559     N        0.05423    0.72390    0.48333    1.000
    Si560    Si       0.05864    0.74828    0.44715    1.000
    N561     N        0.07603    0.74053    0.40614    1.000
    Si562    Si       0.06906    0.59149    0.54444    1.000
    N563     N        0.09090    0.55870    0.56232    1.000
    N564     N        0.07404    0.60934    0.50425    1.000
    N565     N        0.07003    0.62539    0.57036    1.000
    Si566    Si       0.10261    0.56439    0.60342    1.000
    Si567    Si       0.09160    0.63521    0.60718    1.000
    Si568    Si       0.07255    0.72729    0.52260    1.000
    N569     N        0.08300    0.68583    0.53524    1.000
    Si570    Si       0.05238    0.66159    0.55412    1.000
    N571     N        0.07076    0.71657    0.62117    1.000
    N572     N        0.05085    0.73968    0.55860    1.000
    N573     N        0.07328    0.55352    0.63193    1.000
    Si574    Si       0.08343    0.52801    0.66684    1.000
    Si575    Si       0.09381    0.62107    0.73135    1.000
    N576     N        0.09849    0.54788    0.70076    1.000
    Si577    Si       0.07974    0.54807    0.74153    1.000
    Si578    Si       0.09949    0.74923    0.62893    1.000
    N579     N        0.04985    0.75847    0.73130    1.000
    Si580    Si       0.07031    0.68372    0.64831    1.000
    N581     N        0.06417    0.64516    0.71103    1.000
    N582     N        0.09133    0.70773    0.72224    1.000
    N583     N        0.06169    0.64048    0.64042    1.000
    Si584    Si       0.08872    0.74977    0.71351    1.000
    Si585    Si       0.05318    0.68547    0.71659    1.000
    N586     N        0.07618    0.60919    0.81989    1.000
    Si587    Si       0.05923    0.61087    0.86019    1.000
    N588     N        0.07503    0.58992    0.75385    1.000
    Si589    Si       0.04927    0.59541    0.78943    1.000
    N590     N        0.07358    0.67074    0.80389    1.000
    Si591    Si       0.07209    0.70984    0.81992    1.000
    N592     N        0.04858    0.73993    0.80002    1.000
    N593     N        0.04786    0.70652    0.85763    1.000
    Si594    Si       0.09462    0.61811    0.98305    1.000
    N595     N        0.08622    0.57553    0.97390    1.000
    N596     N        0.06918    0.57159    0.87830    1.000
    N597     N        0.10707    0.53037    0.92149    1.000
    Si598    Si       0.10866    0.56136    0.89054    1.000
    N599     N        0.05297    0.69700    0.93072    1.000
    Si600    Si       0.10055    0.63427    0.91800    1.000
    N601     N        0.07297    0.63692    0.95186    1.000
    Si602    Si       0.06944    0.68998    0.89045    1.000
    N603     N        0.10506    0.71497    0.88849    1.000
    N604     N        0.07148    0.64595    0.88556    1.000
    Si605    Si       0.08321    0.79932    0.04003    1.000
    Si606    Si       0.09066    0.86092    0.07844    1.000
    N607     N        0.07823    0.84357    0.04009    1.000
    N608     N        0.07864    0.78273    0.07886    1.000
    N609     N        0.06104    0.84663    0.10891    1.000
    N610     N        0.05430    0.79605    0.00552    1.000
    Si611    Si       0.06928    0.80430    0.11543    1.000
    Si612    Si       0.05168    0.83951    0.00519    1.000
    Si613    Si       0.09308    0.94841    0.01918    1.000
    N614     N        0.08127    0.90241    0.08256    1.000
    N615     N        0.05210    0.93391    0.02612    1.000
    N616     N        0.09555    0.99126    0.00641    1.000
    N617     N        0.09041    0.96500    0.11435    1.000
    N618     N        0.09365    0.85901    0.18633    1.000
    N619     N        0.09156    0.78544    0.21495    1.000
    N620     N        0.09969    0.79418    0.14621    1.000
    Si621    Si       0.10047    0.81511    0.18491    1.000
    Si622    Si       0.05695    0.88059    0.19417    1.000
    N623     N        0.10571    0.93258    0.17155    1.000
    Si624    Si       0.07136    0.99019    0.24248    1.000
    N625     N        0.06281    0.91271    0.22060    1.000
    Si626    Si       0.06853    0.94085    0.15011    1.000
    N627     N        0.04825    0.90242    0.15509    1.000
    Si628    Si       0.10226    0.93070    0.21418    1.000
    Si629    Si       0.09439    0.86138    0.29026    1.000
    Si630    Si       0.08879    0.86985    0.36062    1.000
    N631     N        0.09983    0.78169    0.29553    1.000
    N632     N        0.05130    0.86274    0.28363    1.000
    Si633    Si       0.05756    0.77320    0.30260    1.000
    N634     N        0.10319    0.84355    0.32893    1.000
    Si635    Si       0.07989    0.76330    0.36857    1.000
    N636     N        0.04851    0.78609    0.34594    1.000
    Si637    Si       0.05682    0.83344    0.25034    1.000
    N638     N        0.07044    0.90938    0.34465    1.000
    Si639    Si       0.09008    0.93194    0.31218    1.000
    N640     N        0.05044    0.93774    0.29423    1.000
    N641     N        0.10572    0.96373    0.24490    1.000
    N642     N        0.07297    0.78671    0.46206    1.000
    N643     N        0.06355    0.85328    0.44758    1.000
    N644     N        0.05493    0.85329    0.38029    1.000
    Si645    Si       0.10088    0.86121    0.46799    1.000
    Si646    Si       0.10346    0.79247    0.49401    1.000
    N647     N        0.08358    0.97163    0.37706    1.000
    N648     N        0.10034    0.90457    0.47477    1.000
    Si649    Si       0.07982    0.99388    0.41768    1.000
    N650     N        0.05558    0.91703    0.41375    1.000
    Si651    Si       0.08541    0.92737    0.38385    1.000
    Si652    Si       0.05973    0.77939    0.57105    1.000
    N653     N        0.09673    0.85075    0.56810    1.000
    Si654    Si       0.07003    0.84657    0.53459    1.000
    N655     N        0.09451    0.78164    0.59793    1.000
    N656     N        0.05461    0.80572    0.53586    1.000
    N657     N        0.10189    0.83873    0.50474    1.000
    Si658    Si       0.09479    0.88248    0.60175    1.000
    Si659    Si       0.06734    0.94400    0.56577    1.000
    N660     N        0.08939    0.92779    0.53167    1.000
    N661     N        0.08290    0.98157    0.58067    1.000
    N662     N        0.06372    0.91016    0.59229    1.000
    Si663    Si       0.06423    0.91093    0.49964    1.000
    Si664    Si       0.09746    0.98774    0.62135    1.000
    N665     N        0.07382    0.81865    0.72517    1.000
    Si666    Si       0.07879    0.80738    0.68171    1.000
    N667     N        0.08680    0.76602    0.67095    1.000
    N668     N        0.08054    0.87415    0.64475    1.000
    Si669    Si       0.09117    0.85045    0.74595    1.000
    N670     N        0.09144    0.88222    0.71661    1.000
    Si671    Si       0.05070    0.97056    0.67886    1.000
    Si672    Si       0.08146    0.92419    0.72645    1.000
    N673     N        0.07971    0.96141    0.65083    1.000
    N674     N        0.07895    0.86555    0.78398    1.000
    N675     N        0.08849    0.78053    0.84180    1.000
    Si676    Si       0.07198    0.87922    0.86345    1.000
    Si677    Si       0.05148    0.77731    0.81949    1.000
    N678     N        0.04670    0.80911    0.78834    1.000
    N679     N        0.08521    0.91040    0.83556    1.000
    N680     N        0.07790    0.92988    0.76994    1.000
    N681     N        0.07309    0.98181    0.81852    1.000
    Si682    Si       0.09246    0.95047    0.84654    1.000
    Si683    Si       0.06245    0.96921    0.77800    1.000
    N684     N        0.09446    0.99743    0.75981    1.000
    Si685    Si       0.09893    0.90161    0.79510    1.000
    N686     N        0.10016    0.84707    0.87319    1.000
    N687     N        0.07555    0.85032    0.96847    1.000
    Si688    Si       0.07099    0.77189    0.97197    1.000
    Si689    Si       0.05406    0.86411    0.93241    1.000
    N690     N        0.10756    0.79347    0.96055    1.000
    N691     N        0.08482    0.96096    0.88803    1.000
    Si692    Si       0.08631    0.99219    0.96424    1.000
    Si693    Si       0.10274    0.99844    0.89696    1.000
    N694     N        0.07756    0.89351    0.90912    1.000
    Si695    Si       0.06468    0.93537    0.91528    1.000
    N696     N        0.06005    0.95970    0.95202    1.000
    Si697    Si       0.12501    0.08503    0.01498    1.000
    Si698    Si       0.11708    0.02327    0.02442    1.000
    N699     N        0.12895    0.04897    0.10990    1.000
    N700     N        0.15261    0.01280    0.04661    1.000
    N701     N        0.16708    0.08251    0.02719    1.000
    N702     N        0.13140    0.13464    0.02695    1.000
    N703     N        0.11229    0.15761    0.08535    1.000
    Si704    Si       0.12603    0.17650    0.04801    1.000
    N705     N        0.11940    0.22852    0.06420    1.000
    Si706    Si       0.14925    0.21476    0.09475    1.000
    Si707    Si       0.14927    0.14855    0.10521    1.000
    N708     N        0.16431    0.18706    0.05999    1.000
    Si709    Si       0.14274    0.25615    0.03864    1.000
    Si710    Si       0.11444    0.08597    0.13237    1.000
    Si711    Si       0.15523    0.07933    0.22925    1.000
    N712     N        0.14245    0.11779    0.13503    1.000
    N713     N        0.11970    0.05364    0.23065    1.000
    N714     N        0.12237    0.00624    0.16208    1.000
    N715     N        0.11211    0.17315    0.24002    1.000
    N716     N        0.11867    0.22019    0.18422    1.000
    N717     N        0.15866    0.23594    0.23668    1.000
    N718     N        0.15202    0.18704    0.12837    1.000
    N719     N        0.15766    0.15713    0.19097    1.000
    Si720    Si       0.15192    0.15732    0.23626    1.000
    Si721    Si       0.15463    0.19584    0.17247    1.000
    Si722    Si       0.12381    0.25336    0.21757    1.000
    N723     N        0.13384    0.25696    0.12393    1.000
    Si724    Si       0.14058    0.11476    0.29415    1.000
    N725     N        0.13027    0.07226    0.29963    1.000
    Si726    Si       0.15078    0.05569    0.33482    1.000
    N727     N        0.11994    0.03036    0.35203    1.000
    Si728    Si       0.11878    0.04036    0.27075    1.000
    N729     N        0.14992    0.11532    0.25090    1.000
    N730     N        0.16037    0.08440    0.36746    1.000
    N731     N        0.15087    0.01103    0.27253    1.000
    N732     N        0.12879    0.20393    0.30021    1.000
    Si733    Si       0.11207    0.21866    0.33748    1.000
    Si734    Si       0.16246    0.21659    0.27573    1.000
    N735     N        0.14113    0.22842    0.36647    1.000
    Si736    Si       0.15381    0.07502    0.40999    1.000
    N737     N        0.15367    0.03793    0.43045    1.000
    N738     N        0.11789    0.09198    0.42996    1.000
    Si739    Si       0.15686    0.04248    0.47448    1.000
    N740     N        0.12795    0.22145    0.43876    1.000
    Si741    Si       0.11536    0.13684    0.43781    1.000
    Si742    Si       0.15942    0.19675    0.45191    1.000
    N743     N        0.15393    0.15592    0.43831    1.000
    Si744    Si       0.13325    0.24854    0.40492    1.000
    Si745    Si       0.13909    0.04746    0.53428    1.000
    Si746    Si       0.10933    0.11324    0.61051    1.000
    N747     N        0.13684    0.07451    0.61375    1.000
    N748     N        0.15325    0.01271    0.50830    1.000
    N749     N        0.14249    0.12879    0.58664    1.000
    Si750    Si       0.13593    0.13028    0.54330    1.000
    N751     N        0.13399    0.07040    0.49868    1.000
    N752     N        0.10657    0.03744    0.56146    1.000
    Si753    Si       0.15460    0.22460    0.59308    1.000
    N754     N        0.14674    0.23821    0.55098    1.000
    N755     N        0.11891    0.20415    0.60507    1.000
    N756     N        0.11533    0.16833    0.54076    1.000
    Si757    Si       0.14125    0.08941    0.72582    1.000
    N758     N        0.16141    0.11609    0.69676    1.000
    N759     N        0.12245    0.00372    0.68408    1.000
    Si760    Si       0.15690    0.18286    0.73804    1.000
    N761     N        0.12614    0.17401    0.70606    1.000
    N762     N        0.11248    0.23750    0.67381    1.000
    Si763    Si       0.10829    0.21495    0.71072    1.000
    Si764    Si       0.13694    0.14405    0.67512    1.000
    N765     N        0.16513    0.16534    0.64682    1.000
    N766     N        0.13402    0.22068    0.74660    1.000
    N767     N        0.12586    0.10836    0.76133    1.000
    N768     N        0.14064    0.07465    0.86368    1.000
    Si769    Si       0.15208    0.11546    0.85843    1.000
    Si770    Si       0.15672    0.12399    0.79075    1.000
    N771     N        0.14520    0.01111    0.81338    1.000
    N772     N        0.13188    0.13444    0.82541    1.000
    N773     N        0.12224    0.20409    0.82833    1.000
    Si774    Si       0.15962    0.22195    0.83867    1.000
    Si775    Si       0.14362    0.25213    0.77487    1.000
    N776     N        0.15168    0.25494    0.86219    1.000
    N777     N        0.12444    0.06775    0.92673    1.000
    Si778    Si       0.15380    0.05174    0.89842    1.000
    N779     N        0.12697    0.04658    0.98777    1.000
    N780     N        0.14540    0.01003    0.88824    1.000
    N781     N        0.13156    0.13016    0.89562    1.000
    N782     N        0.13218    0.18229    0.94528    1.000
    Si783    Si       0.15490    0.15147    0.92381    1.000
    Si784    Si       0.14362    0.33234    0.06072    1.000
    N785     N        0.12535    0.33790    0.02247    1.000
    N786     N        0.11856    0.35880    0.08325    1.000
    N787     N        0.15025    0.29077    0.06568    1.000
    N788     N        0.10731    0.26712    0.01559    1.000
    Si789    Si       0.13055    0.40168    0.09048    1.000
    N790     N        0.12901    0.46187    0.03036    1.000
    Si791    Si       0.16202    0.43642    0.04271    1.000
    N792     N        0.12166    0.49962    0.12311    1.000
    Si793    Si       0.13342    0.50473    0.02516    1.000
    Si794    Si       0.12231    0.36975    0.15697    1.000
    N795     N        0.12068    0.29006    0.19669    1.000
    N796     N        0.15246    0.33858    0.14883    1.000
    Si797    Si       0.15591    0.31264    0.18532    1.000
    Si798    Si       0.14924    0.37287    0.22435    1.000
    N799     N        0.10924    0.36767    0.24167    1.000
    Si800    Si       0.13992    0.43033    0.16304    1.000
    N801     N        0.12168    0.40510    0.13204    1.000
    N802     N        0.14575    0.39403    0.18670    1.000
    N803     N        0.11502    0.46106    0.18219    1.000
    Si804    Si       0.13131    0.47874    0.21776    1.000
    N805     N        0.14515    0.29104    0.29927    1.000
    N806     N        0.13643    0.35488    0.31070    1.000
    Si807    Si       0.14118    0.31882    0.33337    1.000
    Si808    Si       0.14995    0.39213    0.32916    1.000
    N809     N        0.12729    0.41791    0.30404    1.000
    Si810    Si       0.15657    0.43015    0.27158    1.000
    N811     N        0.12530    0.44845    0.24818    1.000
    N812     N        0.14164    0.40645    0.36985    1.000
    N813     N        0.10867    0.48954    0.30757    1.000
    N814     N        0.12816    0.34080    0.41022    1.000
    Si815    Si       0.13178    0.36579    0.44538    1.000
    N816     N        0.15438    0.34198    0.47375    1.000
    N817     N        0.16094    0.27705    0.42043    1.000
    Si818    Si       0.16465    0.31676    0.40188    1.000
    Si819    Si       0.16326    0.30623    0.49803    1.000
    N820     N        0.11477    0.49989    0.45124    1.000
    N821     N        0.16034    0.39614    0.43756    1.000
    N822     N        0.11116    0.43889    0.48770    1.000
    Si823    Si       0.12250    0.47750    0.41425    1.000
    Si824    Si       0.11155    0.48274    0.49274    1.000
    N825     N        0.10871    0.49547    0.37639    1.000
    Si826    Si       0.16916    0.42022    0.40220    1.000
    N827     N        0.10231    0.43765    0.41790    1.000
    Si828    Si       0.14072    0.32905    0.60994    1.000
    Si829    Si       0.12268    0.27559    0.55081    1.000
    N830     N        0.14465    0.30385    0.57384    1.000
    N831     N        0.12431    0.29243    0.50974    1.000
    N832     N        0.11168    0.36048    0.60168    1.000
    Si833    Si       0.12549    0.40177    0.59808    1.000
    N834     N        0.12855    0.49394    0.53370    1.000
    N835     N        0.14564    0.47257    0.59867    1.000
    Si836    Si       0.12576    0.41199    0.52048    1.000
    N837     N        0.11906    0.42567    0.56147    1.000
    Si838    Si       0.11616    0.46786    0.56821    1.000
    Si839    Si       0.13611    0.26877    0.65726    1.000
    N840     N        0.13145    0.33023    0.70978    1.000
    N841     N        0.12425    0.30993    0.64481    1.000
    N842     N        0.15841    0.37255    0.66303    1.000
    Si843    Si       0.10644    0.33805    0.67271    1.000
    Si844    Si       0.12684    0.31413    0.74940    1.000
    N845     N        0.10765    0.41995    0.63432    1.000
    Si846    Si       0.14106    0.50717    0.62427    1.000
    N847     N        0.10786    0.49656    0.64913    1.000
    Si848    Si       0.12878    0.40744    0.67031    1.000
    N849     N        0.13309    0.43766    0.70059    1.000
    N850     N        0.12742    0.34719    0.77788    1.000
    Si851    Si       0.14081    0.28718    0.83519    1.000
    N852     N        0.12200    0.31981    0.85756    1.000
    N853     N        0.11313    0.26782    0.80521    1.000
    N854     N        0.15879    0.28516    0.75119    1.000
    Si855    Si       0.16309    0.37388    0.77473    1.000
    N856     N        0.10767    0.46522    0.75896    1.000
    N857     N        0.11749    0.40114    0.85264    1.000
    N858     N        0.12855    0.48273    0.82178    1.000
    Si859    Si       0.13171    0.43519    0.82150    1.000
    N860     N        0.14018    0.41015    0.78706    1.000
    Si861    Si       0.12509    0.50067    0.86048    1.000
    Si862    Si       0.13421    0.43196    0.74569    1.000
    N863     N        0.11758    0.35039    0.91788    1.000
    N864     N        0.13841    0.29821    0.96679    1.000
    Si865    Si       0.14986    0.32928    0.93939    1.000
    Si866    Si       0.10912    0.30493    0.99754    1.000
    Si867    Si       0.16422    0.39429    0.98229    1.000
    Si868    Si       0.15410    0.40603    0.87555    1.000
    N869     N        0.15895    0.47092    0.96155    1.000
    N870     N        0.15029    0.48170    0.89208    1.000
    Si871    Si       0.13536    0.46059    0.92692    1.000
    N872     N        0.13996    0.41828    0.91484    1.000
    N873     N        0.12014    0.38955    0.97794    1.000
    Si874    Si       0.11461    0.38948    0.93400    1.000
    N875     N        0.11942    0.52158    0.06096    1.000
    N876     N        0.14507    0.58205    0.03394    1.000
    Si877    Si       0.13822    0.62365    0.02797    1.000
    N878     N        0.15024    0.56165    0.11200    1.000
    Si879    Si       0.11126    0.56411    0.05695    1.000
    N880     N        0.15365    0.65409    0.05130    1.000
    Si881    Si       0.13269    0.68586    0.07251    1.000
    N882     N        0.12117    0.72488    0.05652    1.000
    Si883    Si       0.12885    0.74746    0.02148    1.000
    N884     N        0.16434    0.68926    0.10206    1.000
    Si885    Si       0.15743    0.52025    0.12279    1.000
    Si886    Si       0.11705    0.58911    0.12259    1.000
    Si887    Si       0.14486    0.60817    0.21598    1.000
    N888     N        0.13427    0.57520    0.18756    1.000
    N889     N        0.13662    0.62669    0.13513    1.000
    N890     N        0.14224    0.67977    0.16401    1.000
    Si891    Si       0.11075    0.64870    0.16266    1.000
    Si892    Si       0.16694    0.65750    0.13120    1.000
    Si893    Si       0.15938    0.71355    0.18118    1.000
    N894     N        0.13333    0.74769    0.18006    1.000
    N895     N        0.14177    0.54925    0.34028    1.000
    Si896    Si       0.12497    0.52895    0.30350    1.000
    N897     N        0.15592    0.52661    0.27369    1.000
    N898     N        0.13495    0.59088    0.25436    1.000
    N899     N        0.16345    0.62753    0.32717    1.000
    Si900    Si       0.13328    0.64001    0.35708    1.000
    Si901    Si       0.14519    0.72809    0.25393    1.000
    N902     N        0.14848    0.71552    0.29470    1.000
    N903     N        0.12661    0.68181    0.35841    1.000
    Si904    Si       0.11490    0.70124    0.32147    1.000
    Si905    Si       0.12863    0.53500    0.37798    1.000
    N906     N        0.11845    0.60840    0.45564    1.000
    N907     N        0.15857    0.52783    0.40778    1.000
    N908     N        0.14837    0.62654    0.39496    1.000
    Si909    Si       0.13404    0.64225    0.43334    1.000
    N910     N        0.11565    0.68097    0.42509    1.000
    N911     N        0.14496    0.74549    0.41955    1.000
    Si912    Si       0.15037    0.70511    0.43518    1.000
    N913     N        0.15558    0.71533    0.47786    1.000
    N914     N        0.13786    0.54006    0.59774    1.000
    Si915    Si       0.12928    0.54057    0.54991    1.000
    N916     N        0.13451    0.57357    0.51702    1.000
    N917     N        0.11689    0.60217    0.61824    1.000
    Si918    Si       0.11792    0.60782    0.49825    1.000
    N919     N        0.16170    0.69301    0.53876    1.000
    N920     N        0.13459    0.64488    0.51233    1.000
    Si921    Si       0.14920    0.74829    0.50625    1.000
    Si922    Si       0.12343    0.67264    0.54614    1.000
    N923     N        0.11856    0.66494    0.58841    1.000
    Si924    Si       0.13995    0.69006    0.61774    1.000
    N925     N        0.13980    0.73416    0.62374    1.000
    N926     N        0.10581    0.75521    0.51856    1.000
    N927     N        0.15999    0.56297    0.66555    1.000
    N928     N        0.12152    0.61146    0.70105    1.000
    Si929    Si       0.13612    0.57103    0.70111    1.000
    Si930    Si       0.15624    0.59337    0.63359    1.000
    N931     N        0.16186    0.56120    0.73467    1.000
    Si932    Si       0.13570    0.64671    0.67839    1.000
    N933     N        0.11564    0.67511    0.65242    1.000
    Si934    Si       0.12466    0.68651    0.73938    1.000
    N935     N        0.15201    0.67638    0.70778    1.000
    Si936    Si       0.14464    0.56157    0.77687    1.000
    N937     N        0.14137    0.59982    0.79556    1.000
    N938     N        0.13204    0.54402    0.85920    1.000
    N939     N        0.11098    0.53582    0.76984    1.000
    Si940    Si       0.14953    0.70039    0.81147    1.000
    N941     N        0.15041    0.70891    0.76587    1.000
    N942     N        0.14666    0.65834    0.81649    1.000
    N943     N        0.11277    0.72209    0.82488    1.000
    Si944    Si       0.11172    0.74843    0.86110    1.000
    Si945    Si       0.16034    0.74649    0.74674    1.000
    N946     N        0.11228    0.64951    0.75675    1.000
    Si947    Si       0.10608    0.63750    0.80008    1.000
    Si948    Si       0.11513    0.54528    0.96042    1.000
    N949     N        0.12310    0.59761    0.91312    1.000
    N950     N        0.15466    0.56419    0.96309    1.000
    Si951    Si       0.16394    0.58811    0.92775    1.000
    N952     N        0.13564    0.63041    0.98408    1.000
    N953     N        0.13257    0.66405    0.92709    1.000
    N954     N        0.14624    0.73471    0.94120    1.000
    Si955    Si       0.16282    0.65147    0.95860    1.000
    Si956    Si       0.14075    0.70334    0.91077    1.000
    N957     N        0.13236    0.84964    0.07879    1.000
    Si958    Si       0.14873    0.82598    0.04379    1.000
    N959     N        0.12390    0.79037    0.03563    1.000
    N960     N        0.15172    0.84070    0.00194    1.000
    N961     N        0.15791    0.76351    0.11521    1.000
    Si962    Si       0.16481    0.87435    0.09404    1.000
    Si963    Si       0.15542    0.97393    0.06392    1.000
    N964     N        0.11965    0.95082    0.05459    1.000
    N965     N        0.14935    0.98545    0.10732    1.000
    Si966    Si       0.11018    0.93450    0.09212    1.000
    N967     N        0.14370    0.91199    0.10931    1.000
    N968     N        0.14225    0.82028    0.20099    1.000
    Si969    Si       0.15739    0.77975    0.20236    1.000
    Si970    Si       0.13567    0.86420    0.20092    1.000
    Si971    Si       0.12201    0.75764    0.13784    1.000
    Si972    Si       0.10845    0.00697    0.11941    1.000
    N973     N        0.13241    0.90281    0.22474    1.000
    Si974    Si       0.15972    0.98735    0.15053    1.000
    Si975    Si       0.14323    0.92266    0.15361    1.000
    N976     N        0.15611    0.88439    0.16846    1.000
    Si977    Si       0.12045    0.80208    0.32665    1.000
    N978     N        0.11757    0.78534    0.36664    1.000
    N979     N        0.16238    0.80333    0.31316    1.000
    Si980    Si       0.11338    0.79301    0.25472    1.000
    N981     N        0.15252    0.77012    0.24462    1.000
    N982     N        0.10124    0.83584    0.25929    1.000
    N983     N        0.16657    0.94121    0.27636    1.000
    N984     N        0.11880    0.96519    0.31863    1.000
    Si985    Si       0.13316    0.97163    0.27730    1.000
    Si986    Si       0.14598    0.90392    0.26579    1.000
    Si987    Si       0.11985    0.98637    0.35410    1.000
    N988     N        0.11044    0.90037    0.29082    1.000
    Si989    Si       0.15282    0.77127    0.38591    1.000
    N990     N        0.13158    0.85155    0.44093    1.000
    N991     N        0.14304    0.78552    0.48006    1.000
    N992     N        0.11712    0.89695    0.38546    1.000
    N993     N        0.15433    0.98170    0.37958    1.000
    Si994    Si       0.15217    0.99339    0.42224    1.000
    Si995    Si       0.12248    0.93805    0.45708    1.000
    N996     N        0.15733    0.92598    0.43238    1.000
    N997     N        0.14977    0.94511    0.49261    1.000
    Si998    Si       0.15965    0.90110    0.39542    1.000
    N999     N        0.11528    0.97766    0.43933    1.000
    N1000    N        0.14731    0.81248    0.55570    1.000
    Si1001   Si       0.11968    0.81473    0.58935    1.000
    Si1002   Si       0.12988    0.84925    0.53605    1.000
    N1003    N        0.13637    0.83788    0.62215    1.000
    N1004    N        0.15097    0.88627    0.53527    1.000
    Si1005   Si       0.13020    0.92204    0.52410    1.000
    N1006    N        0.13538    0.89986    0.60113    1.000
    N1007    N        0.15333    0.94531    0.55452    1.000
    Si1008   Si       0.16634    0.96740    0.59014    1.000
    N1009    N        0.12612    0.76494    0.72614    1.000
    Si1010   Si       0.13515    0.80716    0.71826    1.000
    N1011    N        0.11923    0.82793    0.68367    1.000
    Si1012   Si       0.15434    0.82209    0.65949    1.000
    Si1013   Si       0.16164    0.87397    0.62934    1.000
    Si1014   Si       0.10798    0.87184    0.67834    1.000
    Si1015   Si       0.11993    0.98963    0.72539    1.000
    N1016    N        0.14079    0.98459    0.62156    1.000
    N1017    N        0.11813    0.94471    0.71865    1.000
    N1018    N        0.14117    0.89770    0.66769    1.000
    Si1019   Si       0.15009    0.92419    0.70007    1.000
    Si1020   Si       0.15662    0.99171    0.66002    1.000
    N1021    N        0.15949    0.00441    0.73562    1.000
    N1022    N        0.14557    0.82457    0.82958    1.000
    Si1023   Si       0.15229    0.81648    0.78586    1.000
    N1024    N        0.12895    0.83049    0.75448    1.000
    Si1025   Si       0.11648    0.81028    0.85859    1.000
    N1026    N        0.16642    0.77563    0.77890    1.000
    N1027    N        0.14267    0.90140    0.79150    1.000
    N1028    N        0.13625    0.95393    0.84098    1.000
    Si1029   Si       0.15880    0.99110    0.85178    1.000
    Si1030   Si       0.16251    0.93292    0.81439    1.000
    Si1031   Si       0.13706    0.77665    0.93137    1.000
    N1032    N        0.13770    0.84900    0.93410    1.000
    N1033    N        0.12938    0.77986    0.88962    1.000
    Si1034   Si       0.11895    0.83442    0.97093    1.000
    Si1035   Si       0.12269    0.88048    0.90778    1.000
    Si1036   Si       0.15370    0.92365    0.97239    1.000
    N1037    N        0.11889    0.98962    0.93713    1.000
    N1038    N        0.15028    0.88516    0.87205    1.000
    N1039    N        0.11554    0.92556    0.99148    1.000
    N1040    N        0.14509    0.91251    0.93048    1.000
    Si1041   Si       0.16313    0.98544    0.92598    1.000
    Si1042   Si       0.18229    0.04619    0.04394    1.000
    N1043    N        0.20028    0.05506    0.08364    1.000
    Si1044   Si       0.17350    0.12374    0.03824    1.000
    Si1045   Si       0.16894    0.03377    0.10852    1.000
    N1046    N        0.21827    0.02865    0.02740    1.000
    Si1047   Si       0.21699    0.13139    0.10505    1.000
    N1048    N        0.18192    0.12944    0.08115    1.000
    N1049    N        0.20911    0.14246    0.02219    1.000
    Si1050   Si       0.20533    0.17420    0.05262    1.000
    N1051    N        0.18497    0.24061    0.08987    1.000
    Si1052   Si       0.20849    0.21986    0.99904    1.000
    N1053    N        0.17222    0.24343    0.00645    1.000
    Si1054   Si       0.22173    0.24129    0.06742    1.000
    N1055    N        0.20850    0.12921    0.14840    1.000
    Si1056   Si       0.21255    0.07624    0.21100    1.000
    N1057    N        0.17318    0.08467    0.19083    1.000
    N1058    N        0.18931    0.01889    0.14447    1.000
    Si1059   Si       0.16933    0.12129    0.16907    1.000
    N1060    N        0.22557    0.11607    0.21196    1.000
    Si1061   Si       0.19229    0.25073    0.21326    1.000
    N1062    N        0.19201    0.21498    0.18496    1.000
    N1063    N        0.18878    0.04113    0.31959    1.000
    Si1064   Si       0.19709    0.02876    0.27715    1.000
    Si1065   Si       0.18958    0.11465    0.35532    1.000
    N1066    N        0.17616    0.12787    0.31608    1.000
    N1067    N        0.19180    0.06013    0.24850    1.000
    N1068    N        0.22502    0.23658    0.35747    1.000
    N1069    N        0.17942    0.17676    0.26452    1.000
    Si1070   Si       0.20200    0.15594    0.29490    1.000
    N1071    N        0.19013    0.24052    0.29678    1.000
    N1072    N        0.22273    0.18190    0.32173    1.000
    Si1073   Si       0.21442    0.06968    0.44527    1.000
    N1074    N        0.18926    0.09771    0.42499    1.000
    N1075    N        0.19515    0.06142    0.48247    1.000
    N1076    N        0.22429    0.03787    0.42014    1.000
    N1077    N        0.21815    0.15509    0.45875    1.000
    N1078    N        0.17044    0.19470    0.49300    1.000
    N1079    N        0.19638    0.14996    0.38205    1.000
    N1080    N        0.19558    0.21593    0.43791    1.000
    Si1081   Si       0.19228    0.14039    0.42544    1.000
    Si1082   Si       0.19068    0.25811    0.44754    1.000
    Si1083   Si       0.19953    0.03710    0.56972    1.000
    Si1084   Si       0.19293    0.08932    0.51737    1.000
    N1085    N        0.19929    0.05620    0.60858    1.000
    Si1086   Si       0.17359    0.08977    0.59324    1.000
    N1087    N        0.20322    0.12353    0.60761    1.000
    N1088    N        0.17461    0.06833    0.55216    1.000
    N1089    N        0.17034    0.12634    0.51676    1.000
    N1090    N        0.18532    0.19292    0.58674    1.000
    N1091    N        0.21213    0.23290    0.53519    1.000
    Si1092   Si       0.17319    0.23336    0.51617    1.000
    Si1093   Si       0.17269    0.15637    0.60663    1.000
    Si1094   Si       0.21953    0.19784    0.55886    1.000
    Si1095   Si       0.19301    0.15859    0.49899    1.000
    N1096    N        0.22201    0.16458    0.53150    1.000
    N1097    N        0.18436    0.02566    0.66852    1.000
    Si1098   Si       0.18393    0.03202    0.71343    1.000
    N1099    N        0.18352    0.07183    0.73496    1.000
    Si1100   Si       0.20362    0.10101    0.70593    1.000
    Si1101   Si       0.21516    0.04972    0.64780    1.000
    N1102    N        0.21870    0.08605    0.66861    1.000
    N1103    N        0.21872    0.21745    0.65205    1.000
    N1104    N        0.19333    0.18852    0.71186    1.000
    Si1105   Si       0.19909    0.25567    0.64713    1.000
    Si1106   Si       0.20014    0.18113    0.66862    1.000
    N1107    N        0.16224    0.25355    0.62292    1.000
    Si1108   Si       0.20417    0.06720    0.77469    1.000
    N1109    N        0.18988    0.09861    0.80149    1.000
    N1110    N        0.20420    0.02474    0.78499    1.000
    Si1111   Si       0.21662    0.11167    0.83359    1.000
    N1112    N        0.19353    0.12774    0.86674    1.000
    N1113    N        0.18780    0.19065    0.83668    1.000
    Si1114   Si       0.20658    0.17537    0.79837    1.000
    N1115    N        0.17475    0.24507    0.80281    1.000
    N1116    N        0.17361    0.16048    0.77299    1.000
    Si1117   Si       0.21759    0.24700    0.79955    1.000
    N1118    N        0.22466    0.20939    0.77646    1.000
    N1119    N        0.19293    0.06632    0.90665    1.000
    Si1120   Si       0.20419    0.10971    0.90700    1.000
    Si1121   Si       0.22111    0.04297    0.93011    1.000
    N1122    N        0.18852    0.12951    0.94215    1.000
    Si1123   Si       0.20536    0.17065    0.87100    1.000
    N1124    N        0.17028    0.24782    0.93378    1.000
    N1125    N        0.19709    0.18973    0.97082    1.000
    Si1126   Si       0.21014    0.14843    0.97608    1.000
    Si1127   Si       0.17145    0.20607    0.94047    1.000
    N1128    N        0.18073    0.18185    0.90410    1.000
    N1129    N        0.21435    0.26342    0.88359    1.000
    N1130    N        0.18675    0.34384    0.07557    1.000
    Si1131   Si       0.20077    0.37533    0.04727    1.000
    Si1132   Si       0.21686    0.31074    0.07463    1.000
    N1133    N        0.20135    0.30030    0.11737    1.000
    Si1134   Si       0.18543    0.34237    0.12128    1.000
    Si1135   Si       0.16603    0.27625    0.10390    1.000
    N1136    N        0.22235    0.27854    0.04627    1.000
    N1137    N        0.22143    0.34929    0.01999    1.000
    N1138    N        0.19429    0.45997    0.02750    1.000
    N1139    N        0.19098    0.49565    0.10152    1.000
    Si1140   Si       0.18805    0.45368    0.11192    1.000
    Si1141   Si       0.20824    0.50200    0.02404    1.000
    N1142    N        0.16907    0.39636    0.02575    1.000
    N1143    N        0.16460    0.42796    0.08450    1.000
    N1144    N        0.17118    0.33740    0.21591    1.000
    Si1145   Si       0.21005    0.32013    0.22045    1.000
    N1146    N        0.18639    0.28263    0.18210    1.000
    N1147    N        0.21711    0.37218    0.12719    1.000
    Si1148   Si       0.21768    0.38924    0.24132    1.000
    N1149    N        0.17332    0.48732    0.22013    1.000
    N1150    N        0.17520    0.45304    0.15451    1.000
    Si1151   Si       0.19235    0.48458    0.18152    1.000
    Si1152   Si       0.18605    0.28362    0.28639    1.000
    N1153    N        0.17396    0.31842    0.35936    1.000
    Si1154   Si       0.21619    0.32043    0.34912    1.000
    N1155    N        0.21656    0.30801    0.30493    1.000
    N1156    N        0.19867    0.28453    0.24591    1.000
    N1157    N        0.19221    0.39935    0.32500    1.000
    N1158    N        0.18679    0.45840    0.28329    1.000
    Si1159   Si       0.18469    0.49649    0.26102    1.000
    Si1160   Si       0.21583    0.43110    0.30299    1.000
    N1161    N        0.21390    0.50746    0.36537    1.000
    N1162    N        0.17510    0.39876    0.24755    1.000
    N1163    N        0.18125    0.26616    0.48839    1.000
    N1164    N        0.20016    0.33695    0.41893    1.000
    N1165    N        0.21574    0.37414    0.47482    1.000
    Si1166   Si       0.20147    0.37733    0.43432    1.000
    Si1167   Si       0.18919    0.49703    0.39795    1.000
    N1168    N        0.16476    0.46326    0.40510    1.000
    N1169    N        0.20867    0.40026    0.39658    1.000
    N1170    N        0.18402    0.47239    0.49599    1.000
    Si1171   Si       0.21035    0.50003    0.47642    1.000
    N1172    N        0.21119    0.50816    0.43382    1.000
    Si1173   Si       0.18829    0.31774    0.56781    1.000
    N1174    N        0.18446    0.33756    0.60744    1.000
    N1175    N        0.18554    0.32998    0.52750    1.000
    Si1176   Si       0.18054    0.36452    0.50050    1.000
    Si1177   Si       0.19675    0.43473    0.51886    1.000
    N1178    N        0.19327    0.46056    0.55470    1.000
    Si1179   Si       0.18220    0.44600    0.59406    1.000
    Si1180   Si       0.17231    0.49171    0.53332    1.000
    N1181    N        0.16803    0.40295    0.51669    1.000
    N1182    N        0.16843    0.40465    0.60329    1.000
    N1183    N        0.21443    0.45428    0.62031    1.000
    Si1184   Si       0.22300    0.49518    0.61912    1.000
    N1185    N        0.17525    0.26899    0.68088    1.000
    Si1186   Si       0.18864    0.37592    0.62914    1.000
    Si1187   Si       0.18879    0.28506    0.71794    1.000
    N1188    N        0.20173    0.32640    0.70788    1.000
    Si1189   Si       0.16639    0.35522    0.70171    1.000
    Si1190   Si       0.20681    0.41154    0.72770    1.000
    N1191    N        0.17524    0.50436    0.69844    1.000
    N1192    N        0.17361    0.38384    0.73328    1.000
    Si1193   Si       0.17046    0.46221    0.70420    1.000
    N1194    N        0.20062    0.43367    0.68893    1.000
    Si1195   Si       0.20862    0.32006    0.80918    1.000
    N1196    N        0.19946    0.35931    0.79068    1.000
    N1197    N        0.17842    0.31190    0.83600    1.000
    Si1198   Si       0.16272    0.33400    0.87063    1.000
    Si1199   Si       0.20849    0.46616    0.76554    1.000
    N1200    N        0.21020    0.47294    0.80942    1.000
    Si1201   Si       0.21264    0.44219    0.83917    1.000
    N1202    N        0.17077    0.43182    0.84502    1.000
    N1203    N        0.21616    0.50618    0.75461    1.000
    N1204    N        0.17381    0.45123    0.74551    1.000
    N1205    N        0.17054    0.31109    0.90527    1.000
    Si1206   Si       0.17096    0.27144    0.97059    1.000
    N1207    N        0.20489    0.29616    0.97684    1.000
    N1208    N        0.18221    0.37170    0.87775    1.000
    N1209    N        0.17461    0.35609    0.96200    1.000
    Si1210   Si       0.17444    0.26964    0.89612    1.000
    Si1211   Si       0.21024    0.34030    0.97906    1.000
    Si1212   Si       0.19281    0.49194    0.88942    1.000
    N1213    N        0.19835    0.41873    0.97004    1.000
    Si1214   Si       0.19503    0.46135    0.98374    1.000
    N1215    N        0.22332    0.46414    0.87462    1.000
    N1216    N        0.19442    0.62775    0.09905    1.000
    N1217    N        0.17243    0.52429    0.01672    1.000
    N1218    N        0.21885    0.56071    0.10000    1.000
    Si1219   Si       0.17082    0.56561    0.00311    1.000
    Si1220   Si       0.18899    0.58587    0.11521    1.000
    Si1221   Si       0.21816    0.68488    0.00247    1.000
    N1222    N        0.21068    0.74795    0.08956    1.000
    Si1223   Si       0.19572    0.65751    0.06706    1.000
    N1224    N        0.21294    0.64974    0.02830    1.000
    Si1225   Si       0.21282    0.75174    0.00815    1.000
    N1226    N        0.17127    0.74272    0.01033    1.000
    Si1227   Si       0.18281    0.72676    0.11484    1.000
    Si1228   Si       0.17378    0.55871    0.18283    1.000
    N1229    N        0.18945    0.56222    0.22410    1.000
    Si1230   Si       0.21037    0.61997    0.18227    1.000
    N1231    N        0.19535    0.58836    0.15928    1.000
    N1232    N        0.17592    0.52178    0.16292    1.000
    N1233    N        0.18295    0.63093    0.21417    1.000
    N1234    N        0.20421    0.65456    0.15477    1.000
    N1235    N        0.19554    0.71903    0.15597    1.000
    Si1236   Si       0.19405    0.66930    0.23185    1.000
    N1237    N        0.16624    0.70359    0.22340    1.000
    N1238    N        0.19025    0.57661    0.29471    1.000
    N1239    N        0.19960    0.58834    0.36368    1.000
    Si1240   Si       0.16934    0.58274    0.33211    1.000
    Si1241   Si       0.16711    0.56373    0.26104    1.000
    N1242    N        0.22266    0.51640    0.26443    1.000
    Si1243   Si       0.20098    0.64340    0.31510    1.000
    N1244    N        0.19935    0.68205    0.33552    1.000
    Si1245   Si       0.18970    0.70146    0.29866    1.000
    N1246    N        0.19924    0.66677    0.27583    1.000
    N1247    N        0.20606    0.74120    0.28560    1.000
    N1248    N        0.17791    0.74886    0.35839    1.000
    Si1249   Si       0.19509    0.70952    0.37041    1.000
    Si1250   Si       0.18711    0.60531    0.40057    1.000
    N1251    N        0.18294    0.58355    0.43533    1.000
    N1252    N        0.18684    0.53597    0.48352    1.000
    Si1253   Si       0.18322    0.54243    0.44079    1.000
    N1254    N        0.22055    0.63224    0.40651    1.000
    N1255    N        0.18165    0.69245    0.40704    1.000
    Si1256   Si       0.20317    0.66506    0.43121    1.000
    N1257    N        0.16884    0.65592    0.45695    1.000
    N1258    N        0.18602    0.58568    0.60276    1.000
    Si1259   Si       0.18602    0.54377    0.59220    1.000
    N1260    N        0.20262    0.59672    0.51408    1.000
    Si1261   Si       0.17633    0.56227    0.51404    1.000
    N1262    N        0.17561    0.53411    0.54912    1.000
    Si1263   Si       0.21799    0.61194    0.58850    1.000
    Si1264   Si       0.22316    0.63287    0.52139    1.000
    N1265    N        0.20838    0.64403    0.56118    1.000
    Si1266   Si       0.19723    0.68539    0.56556    1.000
    N1267    N        0.18339    0.68861    0.60636    1.000
    N1268    N        0.21293    0.66958    0.49945    1.000
    Si1269   Si       0.16783    0.67487    0.49690    1.000
    Si1270   Si       0.19072    0.53194    0.66863    1.000
    N1271    N        0.22074    0.54732    0.69583    1.000
    N1272    N        0.18434    0.51365    0.62975    1.000
    Si1273   Si       0.19405    0.53321    0.72924    1.000
    N1274    N        0.16713    0.62959    0.65421    1.000
    N1275    N        0.18932    0.73949    0.71416    1.000
    N1276    N        0.21271    0.74130    0.64507    1.000
    Si1277   Si       0.21622    0.69812    0.63446    1.000
    Si1278   Si       0.20935    0.63540    0.66098    1.000
    N1279    N        0.21236    0.67725    0.67298    1.000
    N1280    N        0.21900    0.67966    0.74047    1.000
    Si1281   Si       0.19145    0.69537    0.70900    1.000
    N1282    N        0.20046    0.52410    0.85918    1.000
    Si1283   Si       0.17145    0.55841    0.85174    1.000
    N1284    N        0.19565    0.59108    0.83398    1.000
    Si1285   Si       0.17275    0.62400    0.81151    1.000
    N1286    N        0.17048    0.54099    0.80438    1.000
    Si1287   Si       0.20471    0.51519    0.81529    1.000
    N1288    N        0.20895    0.62784    0.78800    1.000
    N1289    N        0.17965    0.72972    0.83407    1.000
    Si1290   Si       0.20634    0.72704    0.86979    1.000
    Si1291   Si       0.19591    0.76079    0.80901    1.000
    N1292    N        0.18166    0.57183    0.89402    1.000
    N1293    N        0.18954    0.61948    0.94423    1.000
    N1294    N        0.21369    0.51542    0.92054    1.000
    N1295    N        0.21015    0.58200    0.99629    1.000
    N1296    N        0.18405    0.68421    0.97680    1.000
    N1297    N        0.17822    0.70127    0.89157    1.000
    Si1298   Si       0.17518    0.72655    0.96930    1.000
    N1299    N        0.21641    0.74326    0.96554    1.000
    N1300    N        0.18698    0.81237    0.06239    1.000
    Si1301   Si       0.19202    0.78619    0.09725    1.000
    Si1302   Si       0.21500    0.84340    0.05323    1.000
    N1303    N        0.22930    0.85116    0.01126    1.000
    N1304    N        0.19124    0.88086    0.05954    1.000
    N1305    N        0.19124    0.95688    0.04849    1.000
    Si1306   Si       0.20458    0.91801    0.03631    1.000
    N1307    N        0.18326    0.90509    0.99884    1.000
    N1308    N        0.19812    0.86369    0.11910    1.000
    N1309    N        0.21636    0.80291    0.13109    1.000
    N1310    N        0.20020    0.77636    0.20295    1.000
    N1311    N        0.21122    0.84258    0.18415    1.000
    Si1312   Si       0.19802    0.87618    0.16065    1.000
    Si1313   Si       0.21007    0.94027    0.18924    1.000
    N1314    N        0.21454    0.92202    0.22679    1.000
    N1315    N        0.17364    0.95091    0.16786    1.000
    N1316    N        0.21070    0.81305    0.26816    1.000
    N1317    N        0.20638    0.85302    0.32629    1.000
    Si1318   Si       0.19145    0.76938    0.31915    1.000
    Si1319   Si       0.18192    0.83668    0.29276    1.000
    N1320    N        0.17202    0.87209    0.27212    1.000
    Si1321   Si       0.20375    0.77299    0.24742    1.000
    Si1322   Si       0.20906    0.89560    0.33392    1.000
    Si1323   Si       0.20546    0.95509    0.28921    1.000
    N1324    N        0.21119    0.97117    0.33037    1.000
    N1325    N        0.17790    0.91726    0.35942    1.000
    Si1326   Si       0.20624    0.89493    0.26101    1.000
    N1327    N        0.21700    0.98824    0.26346    1.000
    N1328    N        0.22056    0.91668    0.29763    1.000
    Si1329   Si       0.18971    0.95875    0.36698    1.000
    N1330    N        0.18799    0.86993    0.40543    1.000
    N1331    N        0.19715    0.83673    0.47075    1.000
    Si1332   Si       0.17293    0.84105    0.43339    1.000
    N1333    N        0.20844    0.76176    0.44736    1.000
    Si1334   Si       0.16777    0.77384    0.44517    1.000
    N1335    N        0.16874    0.80316    0.41230    1.000
    N1336    N        0.22345    0.92640    0.46360    1.000
    N1337    N        0.22469    0.97190    0.38968    1.000
    Si1338   Si       0.18501    0.94332    0.46353    1.000
    N1339    N        0.18879    0.98403    0.44384    1.000
    Si1340   Si       0.22606    0.99597    0.42702    1.000
    N1341    N        0.19970    0.78270    0.59172    1.000
    Si1342   Si       0.18678    0.79619    0.55303    1.000
    N1343    N        0.21297    0.83029    0.54388    1.000
    N1344    N        0.19417    0.87419    0.59344    1.000
    N1345    N        0.18841    0.76217    0.52437    1.000
    Si1346   Si       0.22730    0.83384    0.50043    1.000
    N1347    N        0.21276    0.96897    0.51351    1.000
    N1348    N        0.19658    0.93812    0.59960    1.000
    Si1349   Si       0.16815    0.90340    0.57340    1.000
    N1350    N        0.18101    0.99873    0.56423    1.000
    Si1351   Si       0.16991    0.97666    0.52686    1.000
    Si1352   Si       0.20349    0.87844    0.69270    1.000
    N1353    N        0.18425    0.85363    0.66091    1.000
    Si1354   Si       0.19569    0.77380    0.68853    1.000
    N1355    N        0.17651    0.80612    0.71239    1.000
    Si1356   Si       0.20535    0.82492    0.73955    1.000
    N1357    N        0.16613    0.78131    0.65653    1.000
    Si1358   Si       0.17881    0.75780    0.62336    1.000
    N1359    N        0.17422    0.95702    0.68011    1.000
    Si1360   Si       0.21735    0.95235    0.68292    1.000
    N1361    N        0.17656    0.89737    0.72316    1.000
    N1362    N        0.18869    0.84082    0.77598    1.000
    N1363    N        0.21074    0.86087    0.83776    1.000
    N1364    N        0.21373    0.79663    0.82631    1.000
    Si1365   Si       0.17225    0.85231    0.85438    1.000
    Si1366   Si       0.22082    0.83321    0.80491    1.000
    Si1367   Si       0.21842    0.79830    0.86911    1.000
    Si1368   Si       0.17477    0.88351    0.76565    1.000
    N1369    N        0.19679    0.92657    0.84393    1.000
    N1370    N        0.20196    0.99054    0.84266    1.000
    N1371    N        0.17964    0.95839    0.78201    1.000
    N1372    N        0.21257    0.90347    0.78333    1.000
    Si1373   Si       0.21743    0.94329    0.76399    1.000
    Si1374   Si       0.16849    0.00045    0.77819    1.000
    Si1375   Si       0.21439    0.95712    0.86940    1.000
    Si1376   Si       0.17932    0.83434    0.92830    1.000
    Si1377   Si       0.21349    0.77357    0.93509    1.000
    N1378    N        0.18931    0.82578    0.88786    1.000
    N1379    N        0.17633    0.79419    0.94344    1.000
    N1380    N        0.20181    0.86240    0.95150    1.000
    N1381    N        0.21416    0.76215    0.89230    1.000
    Si1382   Si       0.18992    0.86185    0.99326    1.000
    N1383    N        0.20044    0.00696    0.93811    1.000
    Si1384   Si       0.21520    0.97193    0.96112    1.000
    N1385    N        0.21077    0.89409    0.89626    1.000
    Si1386   Si       0.17377    0.91551    0.89481    1.000
    N1387    N        0.18008    0.95806    0.89589    1.000
    N1388    N        0.17224    0.96276    0.96462    1.000
    N1389    N        0.25026    0.08453    0.03626    1.000
    N1390    N        0.25110    0.10734    0.09782    1.000
    Si1391   Si       0.24122    0.07016    0.07588    1.000
    Si1392   Si       0.24723    0.05126    0.00702    1.000
    N1393    N        0.27313    0.04434    0.09084    1.000
    Si1394   Si       0.25116    0.12581    0.02336    1.000
    N1395    N        0.28397    0.03047    0.99959    1.000
    Si1396   Si       0.26983    0.19115    0.07300    1.000
    N1397    N        0.25552    0.22933    0.09110    1.000
    N1398    N        0.23256    0.16807    0.08638    1.000
    N1399    N        0.27921    0.15080    0.04536    1.000
    N1400    N        0.22471    0.20946    0.03888    1.000
    Si1401   Si       0.22622    0.01160    0.16886    1.000
    N1402    N        0.23502    0.04904    0.18706    1.000
    Si1403   Si       0.27239    0.07197    0.19437    1.000
    N1404    N        0.27064    0.07904    0.23658    1.000
    N1405    N        0.27607    0.11225    0.17564    1.000
    Si1406   Si       0.25579    0.11853    0.24450    1.000
    N1407    N        0.23616    0.24929    0.15116    1.000
    N1408    N        0.23762    0.23458    0.22260    1.000
    Si1409   Si       0.24063    0.13728    0.17518    1.000
    N1410    N        0.25441    0.17901    0.16860    1.000
    Si1411   Si       0.27088    0.25517    0.12441    1.000
    Si1412   Si       0.23487    0.21703    0.18038    1.000
    N1413    N        0.24455    0.04568    0.28879    1.000
    N1414    N        0.25443    0.02412    0.35218    1.000
    Si1415   Si       0.26636    0.10515    0.35511    1.000
    Si1416   Si       0.22966    0.05193    0.32888    1.000
    N1417    N        0.22682    0.09105    0.34986    1.000
    Si1418   Si       0.27908    0.04702    0.26389    1.000
    N1419    N        0.23758    0.13364    0.28092    1.000
    Si1420   Si       0.22703    0.22603    0.31542    1.000
    N1421    N        0.26287    0.14788    0.35804    1.000
    N1422    N        0.26482    0.23523    0.29635    1.000
    Si1423   Si       0.26492    0.14979    0.31321    1.000
    Si1424   Si       0.26426    0.24923    0.25269    1.000
    Si1425   Si       0.22806    0.17551    0.36619    1.000
    N1426    N        0.25278    0.09024    0.44772    1.000
    N1427    N        0.26766    0.20576    0.46670    1.000
    Si1428   Si       0.25461    0.13234    0.46064    1.000
    Si1429   Si       0.23275    0.19481    0.44207    1.000
    N1430    N        0.24883    0.19291    0.40061    1.000
    N1431    N        0.28134    0.14616    0.42815    1.000
    Si1432   Si       0.24449    0.25840    0.38938    1.000
    Si1433   Si       0.26003    0.06109    0.53839    1.000
    N1434    N        0.23592    0.02748    0.54806    1.000
    N1435    N        0.23275    0.09411    0.53324    1.000
    N1436    N        0.27987    0.12581    0.50037    1.000
    Si1437   Si       0.25197    0.13176    0.53622    1.000
    N1438    N        0.25593    0.20814    0.58664    1.000
    N1439    N        0.27398    0.13926    0.57253    1.000
    Si1440   Si       0.28244    0.22234    0.50455    1.000
    N1441    N        0.24026    0.11851    0.72556    1.000
    N1442    N        0.27305    0.10311    0.63376    1.000
    Si1443   Si       0.23315    0.11614    0.64113    1.000
    N1444    N        0.25740    0.03835    0.64888    1.000
    Si1445   Si       0.26617    0.08850    0.74326    1.000
    N1446    N        0.22541    0.02724    0.71748    1.000
    N1447    N        0.28122    0.06557    0.70839    1.000
    Si1448   Si       0.22353    0.21475    0.73305    1.000
    Si1449   Si       0.25102    0.15610    0.70419    1.000
    N1450    N        0.25782    0.19788    0.71253    1.000
    Si1451   Si       0.25400    0.22964    0.62452    1.000
    N1452    N        0.22957    0.14928    0.66725    1.000
    N1453    N        0.24733    0.07338    0.78010    1.000
    N1454    N        0.26290    0.02171    0.83106    1.000
    N1455    N        0.24843    0.08417    0.84806    1.000
    Si1456   Si       0.26985    0.06296    0.81728    1.000
    N1457    N        0.24909    0.23970    0.83028    1.000
    Si1458   Si       0.27195    0.16299    0.84033    1.000
    N1459    N        0.23588    0.14894    0.81907    1.000
    Si1460   Si       0.25302    0.26092    0.86867    1.000
    N1461    N        0.25985    0.04067    0.91121    1.000
    Si1462   Si       0.26605    0.07879    0.88736    1.000
    N1463    N        0.24646    0.10691    0.91392    1.000
    Si1464   Si       0.25222    0.09829    0.95747    1.000
    N1465    N        0.23187    0.06345    0.96990    1.000
    N1466    N        0.25400    0.13680    0.97786    1.000
    N1467    N        0.24771    0.17917    0.87449    1.000
    N1468    N        0.27439    0.19486    0.93874    1.000
    N1469    N        0.24151    0.24258    0.98364    1.000
    Si1470   Si       0.27566    0.20315    0.89730    1.000
    N1471    N        0.27391    0.24742    0.90662    1.000
    Si1472   Si       0.27130    0.23690    0.95079    1.000
    N1473    N        0.25726    0.32590    0.07434    1.000
    Si1474   Si       0.26176    0.33823    0.03296    1.000
    N1475    N        0.27249    0.30439    0.00578    1.000
    Si1476   Si       0.23468    0.28142    0.00361    1.000
    Si1477   Si       0.24033    0.40109    0.10035    1.000
    Si1478   Si       0.26668    0.40956    0.02629    1.000
    N1479    N        0.23266    0.40201    0.05662    1.000
    N1480    N        0.22883    0.44069    0.11591    1.000
    N1481    N        0.26105    0.50545    0.11834    1.000
    N1482    N        0.27556    0.36999    0.16492    1.000
    N1483    N        0.23241    0.32596    0.18202    1.000
    N1484    N        0.26898    0.29932    0.13451    1.000
    Si1485   Si       0.23177    0.36667    0.16648    1.000
    Si1486   Si       0.27769    0.32516    0.17022    1.000
    Si1487   Si       0.22166    0.28866    0.15525    1.000
    N1488    N        0.26733    0.47411    0.24439    1.000
    N1489    N        0.23089    0.39758    0.19867    1.000
    Si1490   Si       0.25545    0.46758    0.14133    1.000
    N1491    N        0.23444    0.47763    0.17720    1.000
    Si1492   Si       0.26413    0.48986    0.20451    1.000
    Si1493   Si       0.27176    0.40866    0.18736    1.000
    Si1494   Si       0.24873    0.32054    0.27823    1.000
    N1495    N        0.23913    0.35705    0.34723    1.000
    N1496    N        0.26794    0.29468    0.25131    1.000
    N1497    N        0.22890    0.34815    0.24984    1.000
    Si1498   Si       0.28008    0.44931    0.33048    1.000
    N1499    N        0.26294    0.48895    0.31853    1.000
    N1500    N        0.24287    0.43114    0.33940    1.000
    N1501    N        0.23913    0.41772    0.26726    1.000
    Si1502   Si       0.27589    0.43508    0.25705    1.000
    Si1503   Si       0.26293    0.50429    0.27721    1.000
    Si1504   Si       0.22203    0.39580    0.35616    1.000
    N1505    N        0.24046    0.29965    0.37729    1.000
    N1506    N        0.27457    0.32507    0.43327    1.000
    Si1507   Si       0.23547    0.31181    0.42119    1.000
    N1508    N        0.23042    0.27194    0.43362    1.000
    N1509    N        0.27199    0.40010    0.44941    1.000
    N1510    N        0.25072    0.49201    0.49118    1.000
    Si1511   Si       0.25130    0.39356    0.48733    1.000
    Si1512   Si       0.25524    0.29988    0.60227    1.000
    N1513    N        0.27530    0.33751    0.61003    1.000
    Si1514   Si       0.23337    0.26891    0.53687    1.000
    N1515    N        0.22673    0.29650    0.56791    1.000
    N1516    N        0.27522    0.25890    0.52707    1.000
    Si1517   Si       0.26649    0.45970    0.51597    1.000
    N1518    N        0.23946    0.42521    0.51303    1.000
    N1519    N        0.26640    0.30934    0.72807    1.000
    N1520    N        0.27186    0.33889    0.67535    1.000
    Si1521   Si       0.27093    0.36701    0.64230    1.000
    Si1522   Si       0.24229    0.33891    0.70955    1.000
    N1523    N        0.23460    0.27234    0.62909    1.000
    N1524    N        0.21992    0.25873    0.73227    1.000
    N1525    N        0.24077    0.38173    0.71966    1.000
    N1526    N        0.26524    0.44136    0.67380    1.000
    Si1527   Si       0.22989    0.42855    0.65508    1.000
    N1528    N        0.22878    0.38785    0.64200    1.000
    N1529    N        0.24551    0.50248    0.65635    1.000
    Si1530   Si       0.27300    0.33351    0.85651    1.000
    N1531    N        0.24449    0.33800    0.82553    1.000
    Si1532   Si       0.23635    0.37732    0.80704    1.000
    Si1533   Si       0.25311    0.27858    0.75305    1.000
    N1534    N        0.27001    0.38062    0.78069    1.000
    N1535    N        0.22518    0.28735    0.78661    1.000
    N1536    N        0.28395    0.29297    0.86644    1.000
    N1537    N        0.23304    0.40524    0.84106    1.000
    N1538    N        0.23534    0.43485    0.75372    1.000
    Si1539   Si       0.27298    0.41050    0.74888    1.000
    N1540    N        0.24165    0.36142    0.95726    1.000
    Si1541   Si       0.27180    0.34773    0.92806    1.000
    N1542    N        0.25132    0.35039    0.88951    1.000
    Si1543   Si       0.22399    0.38287    0.88051    1.000
    N1544    N        0.22451    0.49522    0.98591    1.000
    Si1545   Si       0.25625    0.44775    0.89932    1.000
    Si1546   Si       0.23775    0.40490    0.95563    1.000
    Si1547   Si       0.24496    0.50705    0.95114    1.000
    N1548    N        0.26711    0.42017    0.98366    1.000
    N1549    N        0.23711    0.40993    0.91227    1.000
    N1550    N        0.26261    0.46832    0.93776    1.000
    N1551    N        0.25474    0.59870    0.04888    1.000
    Si1552   Si       0.23328    0.61442    0.01462    1.000
    N1553    N        0.23315    0.51935    0.05275    1.000
    Si1554   Si       0.25991    0.55494    0.05004    1.000
    N1555    N        0.26676    0.61816    0.11891    1.000
    Si1556   Si       0.22659    0.51838    0.09462    1.000
    Si1557   Si       0.28335    0.60578    0.08235    1.000
    Si1558   Si       0.23880    0.71938    0.07450    1.000
    N1559    N        0.27773    0.73195    0.08906    1.000
    Si1560   Si       0.27551    0.70925    0.01822    1.000
    N1561    N        0.23228    0.72037    0.03079    1.000
    Si1562   Si       0.23518    0.65099    0.12011    1.000
    N1563    N        0.22879    0.67968    0.08675    1.000
    N1564    N        0.25660    0.53305    0.20587    1.000
    N1565    N        0.25130    0.61119    0.19046    1.000
    Si1566   Si       0.27118    0.60288    0.22875    1.000
    Si1567   Si       0.22760    0.54705    0.23431    1.000
    Si1568   Si       0.27879    0.60402    0.15778    1.000
    N1569    N        0.22921    0.68232    0.21249    1.000
    Si1570   Si       0.26807    0.67739    0.23128    1.000
    N1571    N        0.26019    0.67996    0.14492    1.000
    Si1572   Si       0.22445    0.69082    0.16869    1.000
    N1573    N        0.24940    0.55455    0.32676    1.000
    Si1574   Si       0.24043    0.59321    0.35251    1.000
    N1575    N        0.23724    0.61815    0.31506    1.000
    Si1576   Si       0.25385    0.51797    0.35010    1.000
    N1577    N        0.24849    0.57879    0.25567    1.000
    Si1578   Si       0.23216    0.57964    0.29542    1.000
    Si1579   Si       0.27415    0.63074    0.29368    1.000
    Si1580   Si       0.25218    0.73847    0.27886    1.000
    N1581    N        0.27476    0.73176    0.31588    1.000
    Si1582   Si       0.25374    0.74837    0.35040    1.000
    N1583    N        0.27943    0.70762    0.26116    1.000
    N1584    N        0.27515    0.63931    0.25105    1.000
    N1585    N        0.27429    0.59462    0.37892    1.000
    Si1586   Si       0.26298    0.62681    0.40688    1.000
    N1587    N        0.28392    0.52403    0.38019    1.000
    N1588    N        0.24968    0.73464    0.49332    1.000
    N1589    N        0.23805    0.71955    0.37718    1.000
    Si1590   Si       0.24815    0.69324    0.48247    1.000
    N1591    N        0.27861    0.66264    0.38766    1.000
    N1592    N        0.23972    0.68700    0.44028    1.000
    Si1593   Si       0.26308    0.69837    0.40588    1.000
    Si1594   Si       0.26380    0.55514    0.59468    1.000
    N1595    N        0.25566    0.59357    0.57517    1.000
    N1596    N        0.23054    0.52960    0.59208    1.000
    N1597    N        0.26567    0.63393    0.51629    1.000
    Si1598   Si       0.28465    0.62019    0.55458    1.000
    N1599    N        0.23003    0.71512    0.56107    1.000
    Si1600   Si       0.26574    0.72638    0.58618    1.000
    Si1601   Si       0.22936    0.74671    0.52940    1.000
    Si1602   Si       0.27097    0.65243    0.61952    1.000
    N1603    N        0.25815    0.69496    0.62069    1.000
    Si1604   Si       0.23728    0.58188    0.71836    1.000
    Si1605   Si       0.26144    0.53918    0.67562    1.000
    N1606    N        0.26917    0.56148    0.63711    1.000
    N1607    N        0.27683    0.57278    0.70295    1.000
    N1608    N        0.22582    0.61867    0.69942    1.000
    N1609    N        0.23130    0.63362    0.62370    1.000
    N1610    N        0.26982    0.72493    0.74457    1.000
    N1611    N        0.27755    0.67403    0.70062    1.000
    Si1612   Si       0.24407    0.65303    0.71860    1.000
    Si1613   Si       0.25341    0.75578    0.65481    1.000
    N1614    N        0.24114    0.54148    0.80872    1.000
    N1615    N        0.26361    0.60771    0.81359    1.000
    Si1616   Si       0.24762    0.53200    0.76612    1.000
    Si1617   Si       0.27454    0.52974    0.83872    1.000
    N1618    N        0.22906    0.56980    0.75730    1.000
    Si1619   Si       0.22646    0.58486    0.80105    1.000
    N1620    N        0.26652    0.63384    0.75038    1.000
    Si1621   Si       0.25144    0.64151    0.78914    1.000
    Si1622   Si       0.24182    0.70322    0.76959    1.000
    N1623    N        0.26142    0.68152    0.80115    1.000
    N1624    N        0.24520    0.71564    0.85549    1.000
    Si1625   Si       0.27919    0.70034    0.83543    1.000
    N1626    N        0.22221    0.74078    0.78276    1.000
    N1627    N        0.24516    0.57865    0.92368    1.000
    N1628    N        0.26732    0.53981    0.87940    1.000
    N1629    N        0.25431    0.62341    0.97657    1.000
    N1630    N        0.28098    0.53108    0.95226    1.000
    Si1631   Si       0.22326    0.59743    0.95723    1.000
    Si1632   Si       0.22327    0.54993    0.89325    1.000
    Si1633   Si       0.28364    0.65444    0.97366    1.000
    N1634    N        0.25886    0.68791    0.98467    1.000
    N1635    N        0.25006    0.84028    0.07759    1.000
    N1636    N        0.24048    0.78389    0.01372    1.000
    Si1637   Si       0.26117    0.88331    0.01311    1.000
    Si1638   Si       0.23565    0.84072    0.11935    1.000
    Si1639   Si       0.28519    0.78190    0.01580    1.000
    N1640    N        0.24754    0.91675    0.03849    1.000
    N1641    N        0.25483    0.97871    0.06715    1.000
    Si1642   Si       0.27373    0.00211    0.09862    1.000
    Si1643   Si       0.27842    0.94591    0.05112    1.000
    Si1644   Si       0.22362    0.98553    0.03652    1.000
    N1645    N        0.23832    0.97703    0.99671    1.000
    Si1646   Si       0.27893    0.78420    0.21952    1.000
    N1647    N        0.27026    0.85358    0.14172    1.000
    N1648    N        0.26382    0.79146    0.17889    1.000
    Si1649   Si       0.21995    0.79987    0.17356    1.000
    N1650    N        0.23661    0.97734    0.19474    1.000
    Si1651   Si       0.26819    0.89514    0.15902    1.000
    N1652    N        0.25544    0.99839    0.13858    1.000
    Si1653   Si       0.25026    0.97888    0.23797    1.000
    Si1654   Si       0.25757    0.90650    0.23061    1.000
    N1655    N        0.22770    0.90750    0.16485    1.000
    Si1656   Si       0.27240    0.96742    0.16478    1.000
    N1657    N        0.27415    0.94252    0.24562    1.000
    Si1658   Si       0.25015    0.83100    0.26351    1.000
    N1659    N        0.26821    0.83052    0.30306    1.000
    Si1660   Si       0.23982    0.82358    0.33805    1.000
    N1661    N        0.23039    0.78115    0.33238    1.000
    N1662    N        0.24003    0.87059    0.25231    1.000
    N1663    N        0.24873    0.76854    0.24713    1.000
    N1664    N        0.24179    0.89497    0.36283    1.000
    Si1665   Si       0.24873    0.98076    0.35247    1.000
    N1666    N        0.28138    0.95298    0.35304    1.000
    Si1667   Si       0.28182    0.90864    0.35217    1.000
    Si1668   Si       0.23025    0.86736    0.39433    1.000
    Si1669   Si       0.24750    0.76910    0.46235    1.000
    N1670    N        0.24429    0.82838    0.38149    1.000
    N1671    N        0.25709    0.87582    0.42737    1.000
    N1672    N        0.25229    0.79875    0.49385    1.000
    N1673    N        0.27728    0.78115    0.43189    1.000
    Si1674   Si       0.28088    0.80710    0.39602    1.000
    N1675    N        0.28424    0.92514    0.47624    1.000
    Si1676   Si       0.25269    0.89542    0.46599    1.000
    N1677    N        0.26255    0.98318    0.44770    1.000
    Si1678   Si       0.25178    0.95592    0.48332    1.000
    N1679    N        0.25204    0.83116    0.60187    1.000
    Si1680   Si       0.24398    0.79015    0.59290    1.000
    N1681    N        0.25635    0.77309    0.55352    1.000
    Si1682   Si       0.22834    0.85612    0.57517    1.000
    Si1683   Si       0.28005    0.87065    0.53032    1.000
    N1684    N        0.25109    0.87006    0.49923    1.000
    Si1685   Si       0.28208    0.79243    0.52376    1.000
    N1686    N        0.26738    0.76227    0.61431    1.000
    N1687    N        0.26205    0.88460    0.56498    1.000
    N1688    N        0.25838    0.96888    0.58051    1.000
    Si1689   Si       0.24125    0.98598    0.54306    1.000
    N1690    N        0.27327    0.98065    0.51401    1.000
    Si1691   Si       0.23585    0.94729    0.61162    1.000
    N1692    N        0.26903    0.85860    0.66168    1.000
    N1693    N        0.23672    0.79076    0.67688    1.000
    Si1694   Si       0.25483    0.82734    0.69241    1.000
    N1695    N        0.22876    0.85297    0.71667    1.000
    Si1696   Si       0.28607    0.84179    0.62605    1.000
    Si1697   Si       0.27026    0.99869    0.65199    1.000
    Si1698   Si       0.26390    0.90205    0.66229    1.000
    Si1699   Si       0.25246    0.99496    0.72501    1.000
    N1700    N        0.22927    0.95947    0.72409    1.000
    N1701    N        0.26683    0.91780    0.62217    1.000
    N1702    N        0.23777    0.97093    0.64750    1.000
    N1703    N        0.28272    0.99870    0.69315    1.000
    N1704    N        0.22466    0.91176    0.67571    1.000
    N1705    N        0.25899    0.84568    0.78786    1.000
    Si1706   Si       0.28250    0.81914    0.75674    1.000
    Si1707   Si       0.25542    0.76135    0.76265    1.000
    N1708    N        0.23887    0.79962    0.74736    1.000
    Si1709   Si       0.28266    0.99053    0.85348    1.000
    N1710    N        0.25994    0.89724    0.85001    1.000
    N1711    N        0.24408    0.96759    0.78866    1.000
    Si1712   Si       0.22938    0.00256    0.81154    1.000
    Si1713   Si       0.22459    0.89938    0.82458    1.000
    N1714    N        0.25673    0.82150    0.87437    1.000
    Si1715   Si       0.23917    0.86659    0.87392    1.000
    Si1716   Si       0.24472    0.81862    0.98545    1.000
    N1717    N        0.23975    0.80744    0.94440    1.000
    N1718    N        0.26519    0.86985    0.91521    1.000
    Si1719   Si       0.26752    0.82649    0.91713    1.000
    Si1720   Si       0.23041    0.89303    0.93735    1.000
    Si1721   Si       0.26889    0.95563    0.91879    1.000
    N1722    N        0.25368    0.96729    0.88069    1.000
    Si1723   Si       0.27976    0.98860    0.98834    1.000
    N1724    N        0.26324    0.89550    0.97223    1.000
    N1725    N        0.27968    0.98792    0.94578    1.000
    N1726    N        0.23263    0.93791    0.93828    1.000
    N1727    N        0.31748    0.10076    0.07524    1.000
    Si1728   Si       0.31074    0.06376    0.09714    1.000
    Si1729   Si       0.28708    0.12908    0.08355    1.000
    N1730    N        0.29809    0.16796    0.10514    1.000
    N1731    N        0.30385    0.20959    0.05222    1.000
    Si1732   Si       0.31487    0.17477    0.03048    1.000
    Si1733   Si       0.32843    0.23873    0.07122    1.000
    Si1734   Si       0.34093    0.17594    0.09730    1.000
    N1735    N        0.31005    0.05056    0.18870    1.000
    Si1736   Si       0.31380    0.01285    0.21262    1.000
    N1737    N        0.33694    0.07137    0.13241    1.000
    N1738    N        0.28198    0.01006    0.24068    1.000
    N1739    N        0.29069    0.14223    0.23368    1.000
    N1740    N        0.29891    0.23005    0.14325    1.000
    Si1741   Si       0.34086    0.23735    0.14191    1.000
    N1742    N        0.31818    0.17262    0.17553    1.000
    N1743    N        0.30688    0.24564    0.24238    1.000
    Si1744   Si       0.30619    0.13567    0.19358    1.000
    Si1745   Si       0.28812    0.18670    0.14491    1.000
    N1746    N        0.31880    0.05538    0.28097    1.000
    Si1747   Si       0.32692    0.09343    0.30285    1.000
    N1748    N        0.32020    0.02071    0.34649    1.000
    N1749    N        0.28797    0.10658    0.31665    1.000
    N1750    N        0.29498    0.17339    0.29355    1.000
    Si1751   Si       0.29834    0.21213    0.31043    1.000
    Si1752   Si       0.31908    0.15869    0.26086    1.000
    N1753    N        0.29950    0.20356    0.35295    1.000
    N1754    N        0.33832    0.22915    0.30479    1.000
    Si1755   Si       0.29107    0.03577    0.37253    1.000
    N1756    N        0.29349    0.08143    0.37975    1.000
    N1757    N        0.31738    0.08984    0.44866    1.000
    N1758    N        0.29623    0.02953    0.41525    1.000
    Si1759   Si       0.33359    0.09754    0.37653    1.000
    Si1760   Si       0.30315    0.09030    0.49255    1.000
    Si1761   Si       0.28430    0.07173    0.42471    1.000
    Si1762   Si       0.28792    0.17042    0.39042    1.000
    Si1763   Si       0.30964    0.19894    0.45469    1.000
    N1764    N        0.32714    0.16270    0.47149    1.000
    Si1765   Si       0.32488    0.13390    0.43574    1.000
    N1766    N        0.32179    0.19828    0.41167    1.000
    N1767    N        0.32942    0.14036    0.38853    1.000
    N1768    N        0.32441    0.22781    0.48585    1.000
    Si1769   Si       0.31519    0.23261    0.38143    1.000
    Si1770   Si       0.32328    0.04939    0.56296    1.000
    Si1771   Si       0.29358    0.10749    0.59731    1.000
    N1772    N        0.29080    0.05345    0.50878    1.000
    N1773    N        0.28696    0.06992    0.57202    1.000
    N1774    N        0.33550    0.11207    0.60099    1.000
    Si1775   Si       0.30371    0.01221    0.51369    1.000
    N1776    N        0.31281    0.00774    0.55632    1.000
    N1777    N        0.32585    0.19368    0.58886    1.000
    Si1778   Si       0.31301    0.15366    0.51267    1.000
    N1779    N        0.29063    0.18774    0.52923    1.000
    Si1780   Si       0.28622    0.18146    0.57215    1.000
    Si1781   Si       0.33862    0.02377    0.63442    1.000
    N1782    N        0.32443    0.05842    0.65885    1.000
    Si1783   Si       0.30367    0.02680    0.71666    1.000
    Si1784   Si       0.28086    0.07097    0.66351    1.000
    N1785    N        0.28933    0.21463    0.64633    1.000
    Si1786   Si       0.29725    0.19767    0.68738    1.000
    Si1787   Si       0.31816    0.13553    0.72687    1.000
    N1788    N        0.29495    0.15355    0.69512    1.000
    Si1789   Si       0.32833    0.20617    0.62995    1.000
    N1790    N        0.33076    0.21899    0.70390    1.000
    N1791    N        0.31003    0.07687    0.81779    1.000
    Si1792   Si       0.32519    0.09743    0.85088    1.000
    Si1793   Si       0.32927    0.09481    0.78524    1.000
    N1794    N        0.30214    0.11068    0.75638    1.000
    N1795    N        0.28472    0.01061    0.75393    1.000
    N1796    N        0.30275    0.13585    0.85639    1.000
    N1797    N        0.29289    0.18380    0.80740    1.000
    N1798    N        0.32291    0.24501    0.82118    1.000
    Si1799   Si       0.33061    0.16735    0.79383    1.000
    N1800    N        0.33371    0.16988    0.74973    1.000
    N1801    N        0.28341    0.25403    0.77250    1.000
    Si1802   Si       0.28341    0.22682    0.80532    1.000
    Si1803   Si       0.29707    0.02019    0.92019    1.000
    N1804    N        0.29447    0.08589    0.96127    1.000
    Si1805   Si       0.31650    0.05478    0.98331    1.000
    N1806    N        0.30953    0.07897    0.88860    1.000
    Si1807   Si       0.31853    0.09837    0.92837    1.000
    N1808    N        0.32762    0.03224    0.94712    1.000
    N1809    N        0.30950    0.13987    0.92796    1.000
    N1810    N        0.32049    0.16897    0.98777    1.000
    Si1811   Si       0.32222    0.15557    0.88988    1.000
    Si1812   Si       0.28827    0.15842    0.96081    1.000
    N1813    N        0.30739    0.25524    0.96537    1.000
    N1814    N        0.31197    0.19737    0.87578    1.000
    N1815    N        0.30647    0.27163    0.09068    1.000
    N1816    N        0.31683    0.34133    0.11102    1.000
    Si1817   Si       0.32872    0.35640    0.00789    1.000
    Si1818   Si       0.29084    0.31059    0.09754    1.000
    N1819    N        0.28779    0.37087    0.02130    1.000
    N1820    N        0.33622    0.33036    0.04226    1.000
    Si1821   Si       0.31435    0.42012    0.08204    1.000
    Si1822   Si       0.32149    0.46585    0.02942    1.000
    N1823    N        0.32821    0.45233    0.10844    1.000
    N1824    N        0.29610    0.43604    0.04635    1.000
    N1825    N        0.32469    0.49975    0.05929    1.000
    N1826    N        0.28301    0.39921    0.10227    1.000
    N1827    N        0.31277    0.30954    0.19309    1.000
    Si1828   Si       0.30783    0.28885    0.23061    1.000
    Si1829   Si       0.30485    0.37653    0.13302    1.000
    N1830    N        0.29151    0.41090    0.22572    1.000
    Si1831   Si       0.32613    0.44354    0.15164    1.000
    Si1832   Si       0.33034    0.39155    0.23494    1.000
    N1833    N        0.33698    0.40029    0.14987    1.000
    N1834    N        0.30512    0.49657    0.18968    1.000
    N1835    N        0.28345    0.44036    0.16184    1.000
    Si1836   Si       0.32286    0.33338    0.29067    1.000
    N1837    N        0.32629    0.37607    0.27651    1.000
    N1838    N        0.33622    0.30506    0.25903    1.000
    N1839    N        0.28277    0.33275    0.30354    1.000
    N1840    N        0.30866    0.32780    0.37036    1.000
    Si1841   Si       0.28142    0.34849    0.34479    1.000
    N1842    N        0.30126    0.38700    0.34126    1.000
    Si1843   Si       0.32239    0.40372    0.30877    1.000
    N1844    N        0.31405    0.46195    0.35597    1.000
    N1845    N        0.29622    0.43513    0.29367    1.000
    N1846    N        0.32460    0.30387    0.49065    1.000
    Si1847   Si       0.29673    0.30114    0.40384    1.000
    Si1848   Si       0.29283    0.36049    0.45352    1.000
    N1849    N        0.33486    0.36156    0.44475    1.000
    N1850    N        0.33535    0.29608    0.42228    1.000
    N1851    N        0.28697    0.26065    0.39394    1.000
    N1852    N        0.28330    0.36113    0.49640    1.000
    N1853    N        0.28374    0.47131    0.42799    1.000
    Si1854   Si       0.28649    0.49212    0.46611    1.000
    N1855    N        0.29938    0.45196    0.48650    1.000
    Si1856   Si       0.30572    0.48805    0.39235    1.000
    N1857    N        0.33650    0.42826    0.42399    1.000
    Si1858   Si       0.29927    0.43257    0.44619    1.000
    N1859    N        0.34123    0.49875    0.41520    1.000
    Si1860   Si       0.31391    0.34115    0.59111    1.000
    N1861    N        0.30675    0.32114    0.55311    1.000
    Si1862   Si       0.30390    0.27587    0.55673    1.000
    Si1863   Si       0.31751    0.33938    0.51554    1.000
    N1864    N        0.29054    0.27198    0.59911    1.000
    Si1865   Si       0.33986    0.26502    0.49974    1.000
    N1866    N        0.34173    0.37462    0.58732    1.000
    N1867    N        0.34078    0.31463    0.61321    1.000
    N1868    N        0.34213    0.26492    0.54369    1.000
    Si1869   Si       0.30538    0.49241    0.58230    1.000
    N1870    N        0.29741    0.46842    0.54693    1.000
    Si1871   Si       0.32955    0.45425    0.51781    1.000
    N1872    N        0.29909    0.47948    0.62233    1.000
    Si1873   Si       0.32097    0.28175    0.63219    1.000
    N1874    N        0.31827    0.28661    0.67560    1.000
    Si1875   Si       0.29822    0.31584    0.69833    1.000
    N1876    N        0.32903    0.33596    0.72077    1.000
    Si1877   Si       0.33741    0.37936    0.73014    1.000
    Si1878   Si       0.30206    0.41898    0.67754    1.000
    N1879    N        0.30799    0.38954    0.64602    1.000
    N1880    N        0.32688    0.45404    0.67131    1.000
    N1881    N        0.30467    0.40371    0.71731    1.000
    Si1882   Si       0.28398    0.48035    0.66320    1.000
    N1883    N        0.30530    0.35725    0.83939    1.000
    Si1884   Si       0.30576    0.35660    0.79477    1.000
    N1885    N        0.32030    0.31556    0.78916    1.000
    Si1886   Si       0.32266    0.27244    0.78711    1.000
    N1887    N        0.33500    0.38020    0.77339    1.000
    N1888    N        0.29832    0.44269    0.77318    1.000
    Si1889   Si       0.31545    0.46212    0.84973    1.000
    Si1890   Si       0.29721    0.48377    0.78690    1.000
    Si1891   Si       0.33518    0.42253    0.78730    1.000
    N1892    N        0.33912    0.49594    0.79125    1.000
    N1893    N        0.33827    0.43150    0.82985    1.000
    N1894    N        0.28308    0.48728    0.82768    1.000
    N1895    N        0.33713    0.32901    0.97235    1.000
    Si1896   Si       0.30103    0.28211    0.90479    1.000
    Si1897   Si       0.30240    0.29742    0.97562    1.000
    N1898    N        0.30520    0.37338    0.93081    1.000
    N1899    N        0.28482    0.30834    0.93559    1.000
    N1900    N        0.34141    0.26815    0.91129    1.000
    N1901    N        0.32797    0.43414    0.94544    1.000
    Si1902   Si       0.31460    0.41080    0.90839    1.000
    N1903    N        0.29494    0.44118    0.88501    1.000
    Si1904   Si       0.29057    0.44998    0.96503    1.000
    N1905    N        0.30912    0.48072    0.99223    1.000
    Si1906   Si       0.31985    0.54258    0.05396    1.000
    N1907    N        0.32054    0.62229    0.06762    1.000
    N1908    N        0.29026    0.56011    0.08266    1.000
    N1909    N        0.28894    0.54056    0.02180    1.000
    Si1910   Si       0.29271    0.53641    0.11853    1.000
    Si1911   Si       0.31068    0.70216    0.08743    1.000
    N1912    N        0.29650    0.68616    0.04870    1.000
    Si1913   Si       0.33199    0.65649    0.03817    1.000
    N1914    N        0.30105    0.74263    0.00876    1.000
    N1915    N        0.34285    0.74062    0.09530    1.000
    N1916    N        0.33410    0.52246    0.12165    1.000
    Si1917   Si       0.30026    0.54395    0.19411    1.000
    N1918    N        0.30775    0.57756    0.22619    1.000
    N1919    N        0.29190    0.56183    0.15408    1.000
    N1920    N        0.31426    0.63205    0.16845    1.000
    N1921    N        0.29642    0.68923    0.20087    1.000
    N1922    N        0.32377    0.68892    0.12665    1.000
    Si1923   Si       0.30035    0.67294    0.15944    1.000
    Si1924   Si       0.32022    0.72390    0.20949    1.000
    N1925    N        0.32868    0.74287    0.17003    1.000
    N1926    N        0.30003    0.59660    0.29904    1.000
    Si1927   Si       0.31165    0.56725    0.26920    1.000
    N1928    N        0.30229    0.52494    0.27456    1.000
    Si1929   Si       0.32861    0.60333    0.33126    1.000
    N1930    N        0.33706    0.57015    0.35915    1.000
    N1931    N        0.33579    0.63643    0.36081    1.000
    Si1932   Si       0.30130    0.70161    0.29833    1.000
    Si1933   Si       0.30910    0.66927    0.35774    1.000
    N1934    N        0.33327    0.70715    0.35807    1.000
    Si1935   Si       0.32366    0.75019    0.35910    1.000
    N1936    N        0.29126    0.66207    0.31754    1.000
    N1937    N        0.34395    0.68821    0.28985    1.000
    Si1938   Si       0.32419    0.60529    0.44164    1.000
    Si1939   Si       0.30370    0.56318    0.38510    1.000
    N1940    N        0.32505    0.56539    0.42393    1.000
    N1941    N        0.31354    0.52102    0.48295    1.000
    N1942    N        0.33283    0.62464    0.48301    1.000
    N1943    N        0.28409    0.62184    0.44451    1.000
    N1944    N        0.29811    0.71643    0.42368    1.000
    N1945    N        0.28962    0.68304    0.48250    1.000
    Si1946   Si       0.32068    0.70509    0.46102    1.000
    N1947    N        0.33578    0.74716    0.46185    1.000
    Si1948   Si       0.29157    0.64019    0.48365    1.000
    N1949    N        0.31736    0.59706    0.53717    1.000
    N1950    N        0.32458    0.59187    0.60068    1.000
    Si1951   Si       0.32619    0.56573    0.56334    1.000
    N1952    N        0.29438    0.53547    0.57277    1.000
    N1953    N        0.29037    0.65268    0.58369    1.000
    N1954    N        0.30733    0.72233    0.57559    1.000
    Si1955   Si       0.32214    0.68188    0.57598    1.000
    Si1956   Si       0.33312    0.74955    0.55476    1.000
    Si1957   Si       0.30512    0.58785    0.63997    1.000
    N1958    N        0.32289    0.62150    0.70852    1.000
    Si1959   Si       0.31997    0.57831    0.70165    1.000
    N1960    N        0.33483    0.56849    0.66295    1.000
    Si1961   Si       0.31707    0.51752    0.72941    1.000
    N1962    N        0.33574    0.55706    0.73475    1.000
    N1963    N        0.29364    0.62934    0.64852    1.000
    N1964    N        0.29521    0.51161    0.69090    1.000
    Si1965   Si       0.30927    0.65320    0.68226    1.000
    N1966    N        0.33340    0.72470    0.71469    1.000
    N1967    N        0.34267    0.74233    0.63156    1.000
    Si1968   Si       0.33409    0.74387    0.67480    1.000
    N1969    N        0.28981    0.74130    0.67442    1.000
    Si1970   Si       0.29156    0.71521    0.70898    1.000
    N1971    N        0.31010    0.55244    0.82869    1.000
    N1972    N        0.32578    0.60818    0.78367    1.000
    Si1973   Si       0.30528    0.59463    0.82144    1.000
    N1974    N        0.32790    0.60921    0.85530    1.000
    N1975    N        0.28628    0.51461    0.75803    1.000
    Si1976   Si       0.30968    0.63193    0.74855    1.000
    N1977    N        0.31287    0.72391    0.81945    1.000
    N1978    N        0.29916    0.67430    0.86505    1.000
    Si1979   Si       0.33539    0.65088    0.85584    1.000
    N1980    N        0.33907    0.66491    0.75353    1.000
    N1981    N        0.32775    0.56635    0.91437    1.000
    Si1982   Si       0.30653    0.52523    0.98528    1.000
    Si1983   Si       0.28301    0.55637    0.91594    1.000
    N1984    N        0.30610    0.66749    0.93923    1.000
    Si1985   Si       0.34147    0.74326    0.99486    1.000
    Si1986   Si       0.31710    0.68872    0.90265    1.000
    N1987    N        0.33060    0.72889    0.90615    1.000
    Si1988   Si       0.34265    0.66603    0.96397    1.000
    N1989    N        0.31967    0.65034    0.99671    1.000
    N1990    N        0.32107    0.85531    0.08676    1.000
    N1991    N        0.29918    0.86966    0.02739    1.000
    N1992    N        0.29786    0.78944    0.05510    1.000
    Si1993   Si       0.29115    0.82708    0.07889    1.000
    Si1994   Si       0.30590    0.76542    0.09262    1.000
    N1995    N        0.29805    0.80074    0.11324    1.000
    Si1996   Si       0.31903    0.84771    0.99629    1.000
    Si1997   Si       0.32838    0.89045    0.05859    1.000
    N1998    N        0.29992    0.96262    0.01777    1.000
    N1999    N        0.30660    0.92281    0.07731    1.000
    N2000    N        0.31356    0.98307    0.10074    1.000
    Si2001   Si       0.31768    0.94216    0.11508    1.000
    N2002    N        0.33072    0.81380    0.17270    1.000
    N2003    N        0.31532    0.76508    0.22532    1.000
    Si2004   Si       0.29295    0.81530    0.15365    1.000
    Si2005   Si       0.30300    0.86061    0.22670    1.000
    N2006    N        0.28276    0.82470    0.23465    1.000
    N2007    N        0.28233    0.88995    0.20002    1.000
    N2008    N        0.31121    0.98280    0.18211    1.000
    N2009    N        0.28484    0.93376    0.14297    1.000
    Si2010   Si       0.30557    0.85614    0.29688    1.000
    Si2011   Si       0.33591    0.86237    0.36353    1.000
    N2012    N        0.30778    0.87836    0.33439    1.000
    N2013    N        0.28579    0.77036    0.37003    1.000
    N2014    N        0.33600    0.77152    0.32322    1.000
    N2015    N        0.30424    0.88508    0.26381    1.000
    N2016    N        0.33522    0.94519    0.28248    1.000
    Si2017   Si       0.31579    0.92641    0.25069    1.000
    N2018    N        0.30834    0.84235    0.39387    1.000
    N2019    N        0.33240    0.81687    0.47407    1.000
    Si2020   Si       0.29879    0.87768    0.41673    1.000
    N2021    N        0.32819    0.88432    0.44681    1.000
    Si2022   Si       0.31262    0.75865    0.42683    1.000
    N2023    N        0.30728    0.90984    0.38868    1.000
    Si2024   Si       0.32423    0.91002    0.48137    1.000
    Si2025   Si       0.31559    0.95231    0.38191    1.000
    Si2026   Si       0.30470    0.99595    0.44219    1.000
    N2027    N        0.32699    0.00505    0.47680    1.000
    N2028    N        0.33232    0.97231    0.41578    1.000
    N2029    N        0.31770    0.76711    0.52028    1.000
    N2030    N        0.29645    0.83098    0.53264    1.000
    N2031    N        0.31400    0.87151    0.61169    1.000
    N2032    N        0.33462    0.78445    0.58164    1.000
    Si2033   Si       0.33650    0.84571    0.51261    1.000
    Si2034   Si       0.31158    0.77145    0.61671    1.000
    N2035    N        0.31959    0.88642    0.51753    1.000
    N2036    N        0.32231    0.93810    0.58524    1.000
    Si2037   Si       0.30060    0.97716    0.58554    1.000
    Si2038   Si       0.29253    0.90441    0.58991    1.000
    Si2039   Si       0.32387    0.81659    0.67934    1.000
    N2040    N        0.29323    0.81983    0.71175    1.000
    N2041    N        0.30924    0.80732    0.63992    1.000
    Si2042   Si       0.32411    0.93399    0.71307    1.000
    N2043    N        0.30415    0.99506    0.62501    1.000
    N2044    N        0.29381    0.92161    0.68398    1.000
    N2045    N        0.31940    0.78236    0.84897    1.000
    N2046    N        0.31931    0.83856    0.77209    1.000
    N2047    N        0.30770    0.85170    0.84370    1.000
    Si2048   Si       0.29745    0.85700    0.80377    1.000
    Si2049   Si       0.32098    0.76749    0.80852    1.000
    N2050    N        0.29032    0.78227    0.78156    1.000
    Si2051   Si       0.30182    0.81688    0.86823    1.000
    N2052    N        0.30599    0.94734    0.75143    1.000
    N2053    N        0.30649    0.89979    0.80186    1.000
    N2054    N        0.30318    0.97047    0.82041    1.000
    Si2055   Si       0.33038    0.91763    0.77166    1.000
    Si2056   Si       0.30200    0.89797    0.84551    1.000
    N2057    N        0.33192    0.92291    0.86172    1.000
    Si2058   Si       0.28636    0.97372    0.77998    1.000
    Si2059   Si       0.34009    0.95134    0.82856    1.000
    N2060    N        0.30969    0.81369    0.91012    1.000
    N2061    N        0.32489    0.86898    0.95939    1.000
    N2062    N        0.29017    0.81379    0.98828    1.000
    N2063    N        0.34472    0.76880    0.96041    1.000
    N2064    N        0.30301    0.92739    0.92174    1.000
    N2065    N        0.31113    0.00062    0.88374    1.000
    Si2066   Si       0.29216    0.88940    0.94031    1.000
    Si2067   Si       0.34221    0.92911    0.90352    1.000
    N2068    N        0.38826    0.10307    0.05945    1.000
    Si2069   Si       0.35150    0.08144    0.05195    1.000
    Si2070   Si       0.37096    0.05016    0.11262    1.000
    N2071    N        0.34655    0.04409    0.07675    1.000
    N2072    N        0.34356    0.07079    0.01208    1.000
    N2073    N        0.37511    0.15166    0.10858    1.000
    Si2074   Si       0.38453    0.24289    0.01649    1.000
    Si2075   Si       0.38664    0.14576    0.06558    1.000
    N2076    N        0.38312    0.20001    0.00499    1.000
    N2077    N        0.34846    0.16428    0.05492    1.000
    N2078    N        0.34654    0.21776    0.10481    1.000
    Si2079   Si       0.38701    0.02126    0.20557    1.000
    N2080    N        0.35201    0.01868    0.23214    1.000
    N2081    N        0.38089    0.05601    0.17960    1.000
    Si2082   Si       0.38285    0.12897    0.19821    1.000
    N2083    N        0.34332    0.11231    0.19575    1.000
    Si2084   Si       0.34194    0.07327    0.17456    1.000
    Si2085   Si       0.34757    0.19340    0.20167    1.000
    N2086    N        0.34196    0.18988    0.24348    1.000
    N2087    N        0.38559    0.17268    0.19826    1.000
    N2088    N        0.35499    0.23113    0.18221    1.000
    N2089    N        0.40423    0.12611    0.23467    1.000
    Si2090   Si       0.35629    0.03657    0.27137    1.000
    N2091    N        0.35086    0.09915    0.33769    1.000
    Si2092   Si       0.38447    0.11228    0.27012    1.000
    N2093    N        0.38682    0.06743    0.27028    1.000
    Si2094   Si       0.39384    0.10793    0.34238    1.000
    N2095    N        0.34282    0.12378    0.27559    1.000
    N2096    N        0.37277    0.18707    0.35091    1.000
    Si2097   Si       0.36946    0.22920    0.33422    1.000
    N2098    N        0.38356    0.24792    0.25838    1.000
    N2099    N        0.35275    0.24883    0.36993    1.000
    Si2100   Si       0.34143    0.23044    0.26157    1.000
    N2101    N        0.38381    0.01022    0.37450    1.000
    Si2102   Si       0.35961    0.08223    0.44289    1.000
    N2103    N        0.36414    0.07595    0.39869    1.000
    N2104    N        0.38323    0.06039    0.47135    1.000
    N2105    N        0.36887    0.12444    0.44453    1.000
    N2106    N        0.39130    0.25613    0.42998    1.000
    Si2107   Si       0.35248    0.17820    0.38868    1.000
    N2108    N        0.39184    0.18192    0.48093    1.000
    Si2109   Si       0.36931    0.14462    0.48875    1.000
    N2110    N        0.38822    0.18328    0.41254    1.000
    N2111    N        0.35813    0.05615    0.53931    1.000
    Si2112   Si       0.37508    0.11373    0.61033    1.000
    Si2113   Si       0.38337    0.08167    0.51138    1.000
    Si2114   Si       0.38507    0.04864    0.57090    1.000
    N2115    N        0.35061    0.04222    0.59689    1.000
    N2116    N        0.34119    0.11045    0.50624    1.000
    N2117    N        0.38512    0.15414    0.59616    1.000
    Si2118   Si       0.36322    0.17915    0.56903    1.000
    N2119    N        0.35162    0.16679    0.52771    1.000
    N2120    N        0.38894    0.21126    0.55210    1.000
    Si2121   Si       0.36899    0.20472    0.51002    1.000
    N2122    N        0.38259    0.25050    0.49940    1.000
    Si2123   Si       0.38599    0.26025    0.54474    1.000
    N2124    N        0.38297    0.11203    0.65376    1.000
    Si2125   Si       0.35857    0.07928    0.67929    1.000
    N2126    N        0.38974    0.06019    0.70313    1.000
    Si2127   Si       0.37214    0.04440    0.74060    1.000
    N2128    N        0.34782    0.01931    0.71686    1.000
    N2129    N        0.34610    0.11311    0.70363    1.000
    N2130    N        0.34951    0.24730    0.63909    1.000
    Si2131   Si       0.39206    0.25282    0.62517    1.000
    Si2132   Si       0.36427    0.14373    0.67754    1.000
    N2133    N        0.38515    0.16968    0.70527    1.000
    Si2134   Si       0.34696    0.25457    0.68272    1.000
    Si2135   Si       0.36025    0.19748    0.72848    1.000
    N2136    N        0.34557    0.17248    0.65044    1.000
    N2137    N        0.38547    0.26104    0.69993    1.000
    Si2138   Si       0.39108    0.25655    0.74312    1.000
    N2139    N        0.35990    0.06636    0.77390    1.000
    N2140    N        0.36826    0.09312    0.85845    1.000
    N2141    N        0.35219    0.12821    0.80105    1.000
    Si2142   Si       0.39918    0.05685    0.79336    1.000
    Si2143   Si       0.39476    0.13076    0.80058    1.000
    Si2144   Si       0.39820    0.06016    0.86905    1.000
    Si2145   Si       0.39201    0.12816    0.87066    1.000
    N2146    N        0.40235    0.03791    0.83158    1.000
    N2147    N        0.36088    0.19040    0.81400    1.000
    N2148    N        0.38641    0.21711    0.75473    1.000
    Si2149   Si       0.39656    0.19710    0.79180    1.000
    Si2150   Si       0.34296    0.21462    0.84648    1.000
    N2151    N        0.37506    0.03246    0.89343    1.000
    Si2152   Si       0.36746    0.04497    0.93564    1.000
    N2153    N        0.36010    0.08772    0.93854    1.000
    N2154    N        0.39695    0.02134    0.95452    1.000
    Si2155   Si       0.39664    0.10977    0.94381    1.000
    N2156    N        0.36443    0.15616    0.88932    1.000
    N2157    N        0.37741    0.22213    0.87057    1.000
    Si2158   Si       0.37894    0.19418    0.90409    1.000
    Si2159   Si       0.36072    0.17738    0.97428    1.000
    N2160    N        0.35539    0.20513    0.94003    1.000
    Si2161   Si       0.34661    0.24594    0.94848    1.000
    N2162    N        0.39027    0.14799    0.96084    1.000
    Si2163   Si       0.37021    0.30232    0.04749    1.000
    N2164    N        0.38151    0.32408    0.08650    1.000
    N2165    N        0.39645    0.31383    0.01252    1.000
    N2166    N        0.35737    0.26042    0.04553    1.000
    Si2167   Si       0.34802    0.34990    0.08113    1.000
    Si2168   Si       0.37192    0.40855    0.04264    1.000
    N2169    N        0.36337    0.45146    0.03583    1.000
    N2170    N        0.38770    0.49090    0.08675    1.000
    Si2171   Si       0.39218    0.48133    0.04511    1.000
    N2172    N        0.35203    0.39153    0.00588    1.000
    N2173    N        0.34783    0.39245    0.07292    1.000
    Si2174   Si       0.34453    0.48958    0.09551    1.000
    Si2175   Si       0.38346    0.31015    0.12687    1.000
    N2176    N        0.37218    0.33970    0.15423    1.000
    N2177    N        0.38081    0.29422    0.20813    1.000
    N2178    N        0.36452    0.27455    0.14129    1.000
    Si2179   Si       0.35341    0.32682    0.19241    1.000
    N2180    N        0.35152    0.36808    0.20611    1.000
    Si2181   Si       0.38428    0.26267    0.17710    1.000
    Si2182   Si       0.37088    0.38254    0.16867    1.000
    N2183    N        0.36083    0.46160    0.17130    1.000
    N2184    N        0.36188    0.49565    0.23842    1.000
    Si2185   Si       0.34620    0.49348    0.19553    1.000
    N2186    N        0.35550    0.33598    0.31863    1.000
    Si2187   Si       0.35070    0.33746    0.36239    1.000
    Si2188   Si       0.37902    0.29130    0.25186    1.000
    Si2189   Si       0.39581    0.34586    0.30341    1.000
    Si2190   Si       0.35513    0.46457    0.33923    1.000
    N2191    N        0.35861    0.42751    0.31596    1.000
    Si2192   Si       0.37849    0.41929    0.27922    1.000
    N2193    N        0.36319    0.49564    0.30795    1.000
    N2194    N        0.35337    0.42614    0.24456    1.000
    N2195    N        0.38252    0.30974    0.37713    1.000
    Si2196   Si       0.34543    0.32057    0.45541    1.000
    N2197    N        0.36540    0.37628    0.38080    1.000
    Si2198   Si       0.36740    0.27535    0.40105    1.000
    N2199    N        0.38568    0.31297    0.46862    1.000
    Si2200   Si       0.40387    0.27286    0.46762    1.000
    Si2201   Si       0.35546    0.39060    0.42072    1.000
    N2202    N        0.37786    0.46018    0.37593    1.000
    N2203    N        0.39752    0.46928    0.44570    1.000
    Si2204   Si       0.36404    0.46253    0.41799    1.000
    N2205    N        0.39720    0.40323    0.43143    1.000
    N2206    N        0.35923    0.35445    0.51888    1.000
    Si2207   Si       0.39546    0.33104    0.50871    1.000
    Si2208   Si       0.36449    0.38442    0.54922    1.000
    N2209    N        0.35053    0.48644    0.58813    1.000
    Si2210   Si       0.36895    0.44675    0.57722    1.000
    N2211    N        0.36154    0.48132    0.50931    1.000
    N2212    N        0.35001    0.42531    0.54254    1.000
    N2213    N        0.35941    0.43116    0.61550    1.000
    Si2214   Si       0.38188    0.32896    0.62658    1.000
    N2215    N        0.37421    0.36537    0.65121    1.000
    Si2216   Si       0.39850    0.36765    0.68657    1.000
    N2217    N        0.40103    0.29101    0.64247    1.000
    Si2218   Si       0.34745    0.39080    0.62706    1.000
    Si2219   Si       0.34230    0.46926    0.63145    1.000
    N2220    N        0.35391    0.49340    0.72768    1.000
    Si2221   Si       0.35920    0.47566    0.69010    1.000
    N2222    N        0.36919    0.50171    0.65327    1.000
    N2223    N        0.39551    0.45473    0.68141    1.000
    N2224    N        0.37959    0.39065    0.71910    1.000
    N2225    N        0.37199    0.37120    0.83382    1.000
    N2226    N        0.38686    0.33106    0.76840    1.000
    Si2227   Si       0.34842    0.31918    0.75372    1.000
    N2228    N        0.35209    0.27459    0.75469    1.000
    Si2229   Si       0.39593    0.35345    0.80332    1.000
    N2230    N        0.40036    0.28813    0.86726    1.000
    Si2231   Si       0.34133    0.35896    0.86107    1.000
    Si2232   Si       0.37114    0.41203    0.85251    1.000
    Si2233   Si       0.37150    0.48228    0.76504    1.000
    N2234    N        0.37104    0.43806    0.76909    1.000
    Si2235   Si       0.39803    0.41259    0.75244    1.000
    N2236    N        0.34154    0.49762    0.85553    1.000
    Si2237   Si       0.37335    0.29556    0.89866    1.000
    N2238    N        0.37608    0.37688    0.94516    1.000
    Si2239   Si       0.37488    0.30488    0.97665    1.000
    N2240    N        0.39065    0.31499    0.93633    1.000
    N2241    N        0.34574    0.33090    0.89214    1.000
    N2242    N        0.37133    0.26109    0.97992    1.000
    Si2243   Si       0.34338    0.35096    0.93251    1.000
    N2244    N        0.38940    0.44484    0.96316    1.000
    N2245    N        0.35777    0.50456    0.92504    1.000
    Si2246   Si       0.37438    0.50497    0.88271    1.000
    N2247    N        0.37493    0.45551    0.89399    1.000
    Si2248   Si       0.36147    0.41046    0.96742    1.000
    Si2249   Si       0.36145    0.46318    0.93375    1.000
    N2250    N        0.34729    0.39585    0.88728    1.000
    Si2251   Si       0.35927    0.60388    0.06036    1.000
    Si2252   Si       0.37564    0.55123    0.00815    1.000
    N2253    N        0.35445    0.56498    0.04309    1.000
    N2254    N        0.38690    0.61810    0.08847    1.000
    N2255    N        0.40014    0.51825    0.01881    1.000
    N2256    N        0.37357    0.63477    0.02967    1.000
    N2257    N        0.35833    0.68412    0.06617    1.000
    Si2258   Si       0.37237    0.72661    0.06733    1.000
    N2259    N        0.37092    0.73946    0.02470    1.000
    Si2260   Si       0.39604    0.65585    0.06646    1.000
    Si2261   Si       0.35555    0.61999    0.17237    1.000
    Si2262   Si       0.36558    0.56552    0.22086    1.000
    Si2263   Si       0.35986    0.54470    0.14874    1.000
    N2264    N        0.36428    0.58657    0.14482    1.000
    N2265    N        0.36924    0.60850    0.21110    1.000
    Si2266   Si       0.39722    0.61050    0.12732    1.000
    N2267    N        0.34758    0.53920    0.18906    1.000
    N2268    N        0.40083    0.52832    0.14787    1.000
    Si2269   Si       0.35080    0.72335    0.13801    1.000
    N2270    N        0.38628    0.71361    0.15981    1.000
    N2271    N        0.38972    0.64387    0.15815    1.000
    Si2272   Si       0.39287    0.72725    0.20014    1.000
    N2273    N        0.35986    0.71243    0.22308    1.000
    N2274    N        0.36374    0.61033    0.30638    1.000
    N2275    N        0.35690    0.55695    0.26546    1.000
    Si2276   Si       0.37999    0.56551    0.36221    1.000
    Si2277   Si       0.38453    0.57631    0.29327    1.000
    N2278    N        0.39730    0.55067    0.32387    1.000
    Si2279   Si       0.34675    0.51440    0.27398    1.000
    N2280    N        0.39800    0.60362    0.37247    1.000
    Si2281   Si       0.37710    0.69731    0.35854    1.000
    Si2282   Si       0.37534    0.70013    0.26268    1.000
    N2283    N        0.39237    0.65914    0.26143    1.000
    Si2284   Si       0.37201    0.65444    0.30167    1.000
    N2285    N        0.39778    0.67104    0.32967    1.000
    N2286    N        0.39623    0.73453    0.35899    1.000
    N2287    N        0.40305    0.72709    0.28691    1.000
    N2288    N        0.38992    0.54181    0.39768    1.000
    N2289    N        0.36114    0.62043    0.42897    1.000
    N2290    N        0.37977    0.53221    0.46726    1.000
    Si2291   Si       0.35755    0.53657    0.42792    1.000
    Si2292   Si       0.37200    0.64149    0.46674    1.000
    N2293    N        0.35500    0.68041    0.45790    1.000
    Si2294   Si       0.37096    0.63297    0.38663    1.000
    Si2295   Si       0.39054    0.69095    0.43337    1.000
    N2296    N        0.38340    0.67492    0.39413    1.000
    N2297    N        0.37104    0.55347    0.60550    1.000
    N2298    N        0.37649    0.61834    0.56742    1.000
    N2299    N        0.35437    0.54173    0.54059    1.000
    Si2300   Si       0.35210    0.62412    0.52687    1.000
    Si2301   Si       0.36919    0.59740    0.60515    1.000
    Si2302   Si       0.37444    0.52094    0.57557    1.000
    Si2303   Si       0.35385    0.52303    0.50144    1.000
    N2304    N        0.38922    0.62888    0.50411    1.000
    Si2305   Si       0.37199    0.72610    0.60591    1.000
    N2306    N        0.37211    0.73226    0.56105    1.000
    N2307    N        0.36156    0.68032    0.60172    1.000
    Si2308   Si       0.38222    0.66123    0.56743    1.000
    N2309    N        0.34445    0.66600    0.54127    1.000
    Si2310   Si       0.36821    0.54460    0.64736    1.000
    N2311    N        0.37754    0.62374    0.64027    1.000
    Si2312   Si       0.35994    0.70093    0.74025    1.000
    Si2313   Si       0.37099    0.66721    0.64199    1.000
    N2314    N        0.39890    0.69708    0.71933    1.000
    N2315    N        0.33963    0.67758    0.66905    1.000
    N2316    N        0.37036    0.55398    0.79648    1.000
    Si2317   Si       0.35459    0.57884    0.76651    1.000
    N2318    N        0.38353    0.61408    0.76351    1.000
    Si2319   Si       0.34542    0.52772    0.82259    1.000
    N2320    N        0.37565    0.54860    0.86801    1.000
    Si2321   Si       0.35994    0.64092    0.78532    1.000
    N2322    N        0.36913    0.71985    0.77815    1.000
    N2323    N        0.37082    0.73514    0.84489    1.000
    N2324    N        0.35508    0.66264    0.82102    1.000
    Si2325   Si       0.35316    0.70737    0.81563    1.000
    Si2326   Si       0.38857    0.75748    0.77634    1.000
    Si2327   Si       0.34303    0.75588    0.87401    1.000
    Si2328   Si       0.34959    0.58168    0.88031    1.000
    Si2329   Si       0.35870    0.54453    0.93858    1.000
    N2330    N        0.38383    0.60605    0.89181    1.000
    Si2331   Si       0.39086    0.62669    0.99051    1.000
    N2332    N        0.34600    0.54038    0.97774    1.000
    N2333    N        0.40131    0.55529    0.93013    1.000
    N2334    N        0.39474    0.58278    0.98798    1.000
    N2335    N        0.35470    0.66772    0.89368    1.000
    N2336    N        0.34975    0.70848    0.96917    1.000
    Si2337   Si       0.38454    0.64338    0.91345    1.000
    N2338    N        0.37136    0.63782    0.95295    1.000
    Si2339   Si       0.36092    0.73455    0.93703    1.000
    Si2340   Si       0.35928    0.85281    0.10560    1.000
    N2341    N        0.36110    0.84437    0.00484    1.000
    N2342    N        0.39319    0.82337    0.10932    1.000
    Si2343   Si       0.38032    0.88219    0.01509    1.000
    N2344    N        0.37353    0.88567    0.08011    1.000
    N2345    N        0.36485    0.97504    0.05001    1.000
    N2346    N        0.35012    0.91162    0.02474    1.000
    Si2347   Si       0.35026    0.99905    0.08475    1.000
    N2348    N        0.37913    0.00526    0.11768    1.000
    Si2349   Si       0.34177    0.95345    0.01954    1.000
    N2350    N        0.38732    0.77086    0.20561    1.000
    Si2351   Si       0.35917    0.84468    0.18070    1.000
    N2352    N        0.36117    0.87073    0.14559    1.000
    N2353    N        0.34370    0.85722    0.21910    1.000
    Si2354   Si       0.34455    0.77573    0.19433    1.000
    Si2355   Si       0.34826    0.95761    0.17944    1.000
    N2356    N        0.38239    0.98551    0.18065    1.000
    Si2357   Si       0.38416    0.90665    0.14643    1.000
    N2358    N        0.35055    0.93622    0.13981    1.000
    N2359    N        0.34255    0.93205    0.21603    1.000
    Si2360   Si       0.38635    0.92466    0.22577    1.000
    Si2361   Si       0.35719    0.80566    0.31513    1.000
    N2362    N        0.36309    0.82685    0.35391    1.000
    Si2363   Si       0.36881    0.85457    0.25453    1.000
    Si2364   Si       0.39520    0.85649    0.35219    1.000
    N2365    N        0.39727    0.78990    0.30721    1.000
    N2366    N        0.34352    0.83709    0.28720    1.000
    N2367    N        0.36911    0.88940    0.35906    1.000
    Si2368   Si       0.38096    0.93025    0.35248    1.000
    Si2369   Si       0.37397    0.95985    0.28848    1.000
    N2370    N        0.39087    0.89268    0.25543    1.000
    N2371    N        0.35006    0.96028    0.35502    1.000
    N2372    N        0.36807    0.00128    0.29919    1.000
    Si2373   Si       0.35719    0.00167    0.34166    1.000
    N2374    N        0.39627    0.93174    0.31354    1.000
    N2375    N        0.39865    0.95738    0.24977    1.000
    Si2376   Si       0.36551    0.80300    0.39301    1.000
    Si2377   Si       0.35416    0.84961    0.45386    1.000
    N2378    N        0.37389    0.83586    0.41959    1.000
    N2379    N        0.37313    0.86446    0.48894    1.000
    Si2380   Si       0.34592    0.77896    0.48831    1.000
    N2381    N        0.34237    0.76878    0.39622    1.000
    N2382    N        0.38961    0.99534    0.44064    1.000
    Si2383   Si       0.36511    0.98316    0.47604    1.000
    Si2384   Si       0.37615    0.97626    0.40345    1.000
    N2385    N        0.35173    0.94207    0.48498    1.000
    N2386    N        0.40256    0.94205    0.38940    1.000
    N2387    N        0.36389    0.82635    0.53731    1.000
    Si2388   Si       0.36661    0.81389    0.57940    1.000
    N2389    N        0.37605    0.84402    0.60924    1.000
    Si2390   Si       0.40366    0.80816    0.52916    1.000
    N2391    N        0.38908    0.77891    0.49855    1.000
    Si2392   Si       0.36503    0.93292    0.59341    1.000
    N2393    N        0.38543    0.93512    0.55176    1.000
    Si2394   Si       0.38699    0.93289    0.50955    1.000
    N2395    N        0.39619    0.97755    0.50749    1.000
    N2396    N        0.39887    0.76291    0.73379    1.000
    N2397    N        0.34746    0.85274    0.67543    1.000
    N2398    N        0.37308    0.83128    0.73652    1.000
    Si2399   Si       0.38752    0.79869    0.71180    1.000
    Si2400   Si       0.35243    0.87126    0.63329    1.000
    Si2401   Si       0.36258    0.86705    0.71480    1.000
    N2402    N        0.35275    0.78384    0.68515    1.000
    Si2403   Si       0.37491    0.99439    0.69271    1.000
    N2404    N        0.36680    0.91094    0.63044    1.000
    N2405    N        0.37366    0.00324    0.64876    1.000
    N2406    N        0.36101    0.95320    0.70040    1.000
    N2407    N        0.39948    0.88696    0.70439    1.000
    N2408    N        0.33839    0.89808    0.73557    1.000
    N2409    N        0.35802    0.78298    0.79235    1.000
    Si2410   Si       0.35895    0.82521    0.77729    1.000
    N2411    N        0.38744    0.84181    0.80443    1.000
    N2412    N        0.36708    0.97841    0.84854    1.000
    N2413    N        0.36202    0.93789    0.79341    1.000
    Si2414   Si       0.36534    0.87161    0.94863    1.000
    N2415    N        0.37958    0.83128    0.94214    1.000
    N2416    N        0.36662    0.78376    0.90002    1.000
    Si2417   Si       0.39398    0.82124    0.98309    1.000
    Si2418   Si       0.39890    0.81267    0.90640    1.000
    Si2419   Si       0.34393    0.80154    0.93303    1.000
    Si2420   Si       0.35400    0.99651    0.88549    1.000
    N2421    N        0.36075    0.97019    0.98491    1.000
    Si2422   Si       0.38491    0.97653    0.95006    1.000
    N2423    N        0.36068    0.96715    0.91578    1.000
    N2424    N        0.39515    0.88953    0.97491    1.000
    N2425    N        0.37083    0.89456    0.91241    1.000
    N2426    N        0.43897    0.12666    0.10018    1.000
    Si2427   Si       0.42597    0.08924    0.08057    1.000
    N2428    N        0.42122    0.02100    0.01884    1.000
    Si2429   Si       0.45483    0.02511    0.04913    1.000
    N2430    N        0.45586    0.06762    0.05902    1.000
    N2431    N        0.40818    0.07071    0.11549    1.000
    Si2432   Si       0.42331    0.19494    0.02049    1.000
    N2433    N        0.42567    0.23684    0.03614    1.000
    N2434    N        0.42588    0.16327    0.04972    1.000
    N2435    N        0.45342    0.24490    0.10029    1.000
    N2436    N        0.45674    0.08237    0.17480    1.000
    N2437    N        0.42096    0.02231    0.23269    1.000
    Si2438   Si       0.41651    0.07326    0.15959    1.000
    N2439    N        0.43311    0.02585    0.15719    1.000
    N2440    N        0.40546    0.11686    0.16270    1.000
    Si2441   Si       0.41270    0.14572    0.13102    1.000
    Si2442   Si       0.44102    0.20706    0.17260    1.000
    N2443    N        0.44388    0.19626    0.21267    1.000
    Si2444   Si       0.41518    0.17105    0.23124    1.000
    N2445    N        0.42137    0.24647    0.16564    1.000
    N2446    N        0.43486    0.18126    0.13795    1.000
    Si2447   Si       0.42775    0.05217    0.26450    1.000
    N2448    N        0.41515    0.07022    0.34895    1.000
    N2449    N        0.44409    0.02973    0.29933    1.000
    Si2450   Si       0.45384    0.05658    0.33235    1.000
    N2451    N        0.40627    0.12527    0.30442    1.000
    N2452    N        0.41142    0.24195    0.32058    1.000
    Si2453   Si       0.43292    0.15849    0.29923    1.000
    Si2454   Si       0.41836    0.23136    0.27958    1.000
    Si2455   Si       0.44565    0.24549    0.35115    1.000
    N2456    N        0.41565    0.18837    0.27231    1.000
    N2457    N        0.44762    0.17119    0.33701    1.000
    Si2458   Si       0.41300    0.17803    0.36483    1.000
    N2459    N        0.45433    0.24619    0.26259    1.000
    N2460    N        0.42732    0.04963    0.41835    1.000
    N2461    N        0.44101    0.02614    0.48467    1.000
    Si2462   Si       0.41065    0.03156    0.45346    1.000
    Si2463   Si       0.39682    0.05051    0.38467    1.000
    N2464    N        0.40445    0.13369    0.37455    1.000
    Si2465   Si       0.43367    0.17971    0.46769    1.000
    Si2466   Si       0.40178    0.14035    0.41842    1.000
    N2467    N        0.44399    0.21688    0.44766    1.000
    N2468    N        0.43678    0.14451    0.44096    1.000
    Si2469   Si       0.41133    0.21964    0.41934    1.000
    N2470    N        0.42747    0.21937    0.37964    1.000
    N2471    N        0.42128    0.06700    0.53641    1.000
    Si2472   Si       0.44055    0.08244    0.57489    1.000
    Si2473   Si       0.44547    0.12504    0.51372    1.000
    Si2474   Si       0.45458    0.05854    0.50852    1.000
    N2475    N        0.40291    0.11954    0.50476    1.000
    N2476    N        0.40348    0.08413    0.59569    1.000
    N2477    N        0.40536    0.01154    0.57983    1.000
    N2478    N        0.44505    0.17863    0.58296    1.000
    Si2479   Si       0.42534    0.22207    0.57729    1.000
    N2480    N        0.45354    0.16685    0.50604    1.000
    N2481    N        0.45786    0.23339    0.54977    1.000
    N2482    N        0.44153    0.07058    0.66396    1.000
    N2483    N        0.42899    0.11865    0.70920    1.000
    Si2484   Si       0.43029    0.04439    0.69726    1.000
    Si2485   Si       0.42450    0.10960    0.66658    1.000
    N2486    N        0.40986    0.21291    0.62285    1.000
    Si2487   Si       0.41931    0.17024    0.61778    1.000
    Si2488   Si       0.42022    0.15935    0.72795    1.000
    N2489    N        0.43988    0.14569    0.64533    1.000
    N2490    N        0.45612    0.18217    0.72365    1.000
    N2491    N        0.41662    0.09576    0.78883    1.000
    N2492    N        0.40608    0.02514    0.76271    1.000
    N2493    N        0.41516    0.13877    0.83809    1.000
    N2494    N        0.41836    0.22794    0.81652    1.000
    Si2495   Si       0.40901    0.24656    0.85528    1.000
    N2496    N        0.41090    0.15985    0.77208    1.000
    N2497    N        0.46197    0.18502    0.85674    1.000
    Si2498   Si       0.45569    0.15209    0.82883    1.000
    N2499    N        0.41390    0.11093    0.90517    1.000
    N2500    N        0.44017    0.05922    0.88402    1.000
    N2501    N        0.42180    0.08199    0.96781    1.000
    Si2502   Si       0.42727    0.03996    0.98156    1.000
    Si2503   Si       0.45407    0.09623    0.90547    1.000
    Si2504   Si       0.45559    0.01975    0.87579    1.000
    N2505    N        0.46102    0.13031    0.94632    1.000
    Si2506   Si       0.45503    0.19971    0.89617    1.000
    Si2507   Si       0.43030    0.16036    0.95382    1.000
    N2508    N        0.44795    0.18191    0.98610    1.000
    N2509    N        0.44179    0.23982    0.88266    1.000
    N2510    N        0.42005    0.18516    0.91818    1.000
    Si2511   Si       0.42871    0.32768    0.08730    1.000
    Si2512   Si       0.44002    0.31542    0.01665    1.000
    N2513    N        0.44265    0.29954    0.05813    1.000
    N2514    N        0.45840    0.35959    0.09240    1.000
    N2515    N        0.45616    0.35442    0.01673    1.000
    Si2516   Si       0.45594    0.25874    0.05896    1.000
    Si2517   Si       0.44335    0.42450    0.02924    1.000
    N2518    N        0.43228    0.46479    0.03598    1.000
    N2519    N        0.41256    0.39912    0.04715    1.000
    Si2520   Si       0.41606    0.50216    0.11621    1.000
    Si2521   Si       0.44071    0.50012    0.00890    1.000
    N2522    N        0.42651    0.30480    0.12362    1.000
    Si2523   Si       0.44732    0.26863    0.13632    1.000
    N2524    N        0.43011    0.37636    0.22694    1.000
    N2525    N        0.46198    0.36252    0.16552    1.000
    Si2526   Si       0.40335    0.47907    0.24264    1.000
    Si2527   Si       0.44365    0.39237    0.18872    1.000
    N2528    N        0.42833    0.46576    0.13507    1.000
    N2529    N        0.41536    0.48423    0.20053    1.000
    N2530    N        0.40661    0.40974    0.17470    1.000
    Si2531   Si       0.40438    0.45345    0.17006    1.000
    N2532    N        0.43015    0.33782    0.32953    1.000
    N2533    N        0.40581    0.32158    0.26805    1.000
    N2534    N        0.45171    0.28521    0.36876    1.000
    Si2535   Si       0.43789    0.33871    0.24624    1.000
    N2536    N        0.40342    0.38510    0.28755    1.000
    Si2537   Si       0.43723    0.40197    0.26095    1.000
    N2538    N        0.43096    0.48404    0.33467    1.000
    N2539    N        0.41450    0.44062    0.26079    1.000
    Si2540   Si       0.42421    0.32092    0.36851    1.000
    N2541    N        0.43274    0.35288    0.39469    1.000
    N2542    N        0.44542    0.28059    0.47520    1.000
    Si2543   Si       0.45913    0.31803    0.48860    1.000
    N2544    N        0.43455    0.42219    0.37512    1.000
    Si2545   Si       0.42097    0.46468    0.37447    1.000
    Si2546   Si       0.41355    0.50610    0.46287    1.000
    Si2547   Si       0.41859    0.43150    0.45591    1.000
    N2548    N        0.44421    0.49076    0.39883    1.000
    Si2549   Si       0.40936    0.39047    0.39198    1.000
    Si2550   Si       0.42675    0.30093    0.57853    1.000
    N2551    N        0.41367    0.33764    0.59811    1.000
    Si2552   Si       0.43330    0.37511    0.58918    1.000
    N2553    N        0.43262    0.34987    0.50368    1.000
    N2554    N        0.40713    0.26217    0.58534    1.000
    N2555    N        0.40497    0.30069    0.53823    1.000
    N2556    N        0.40861    0.38973    0.55458    1.000
    N2557    N        0.40740    0.45971    0.55996    1.000
    Si2558   Si       0.43431    0.39179    0.52071    1.000
    Si2559   Si       0.43389    0.48717    0.57787    1.000
    N2560    N        0.43203    0.49038    0.49916    1.000
    N2561    N        0.41456    0.42425    0.49813    1.000
    Si2562   Si       0.40163    0.46235    0.51620    1.000
    N2563    N        0.43020    0.47845    0.61974    1.000
    Si2564   Si       0.41443    0.28992    0.68515    1.000
    N2565    N        0.40569    0.32758    0.70377    1.000
    Si2566   Si       0.42105    0.31986    0.74400    1.000
    N2567    N        0.43096    0.27763    0.74265    1.000
    N2568    N        0.45757    0.29351    0.68741    1.000
    N2569    N        0.44640    0.40250    0.62157    1.000
    N2570    N        0.43613    0.38635    0.68445    1.000
    Si2571   Si       0.42776    0.42920    0.69504    1.000
    Si2572   Si       0.41098    0.48751    0.65815    1.000
    N2573    N        0.43019    0.43461    0.73701    1.000
    Si2574   Si       0.45404    0.44540    0.62958    1.000
    N2575    N        0.43693    0.50949    0.68878    1.000
    N2576    N        0.42777    0.32930    0.82020    1.000
    Si2577   Si       0.43083    0.31726    0.86090    1.000
    N2578    N        0.45669    0.34101    0.75505    1.000
    N2579    N        0.41099    0.42494    0.84920    1.000
    Si2580   Si       0.43813    0.40946    0.81847    1.000
    N2581    N        0.41604    0.39026    0.78655    1.000
    N2582    N        0.40878    0.50168    0.77624    1.000
    Si2583   Si       0.41091    0.35400    0.93050    1.000
    N2584    N        0.42928    0.34659    0.89254    1.000
    N2585    N        0.45122    0.36077    0.94881    1.000
    Si2586   Si       0.41732    0.45114    0.88191    1.000
    Si2587   Si       0.43184    0.44491    0.95893    1.000
    N2588    N        0.44643    0.48474    0.96865    1.000
    N2589    N        0.41679    0.49567    0.87456    1.000
    N2590    N        0.43760    0.43627    0.91682    1.000
    N2591    N        0.44886    0.41656    0.98471    1.000
    N2592    N        0.45165    0.52110    0.10250    1.000
    Si2593   Si       0.45988    0.63434    0.01813    1.000
    N2594    N        0.45723    0.59296    0.03034    1.000
    N2595    N        0.43847    0.65580    0.04949    1.000
    N2596    N        0.41709    0.67596    0.10241    1.000
    N2597    N        0.44821    0.74629    0.02823    1.000
    Si2598   Si       0.45185    0.74554    0.07242    1.000
    N2599    N        0.40811    0.75094    0.07838    1.000
    Si2600   Si       0.45718    0.67253    0.08594    1.000
    Si2601   Si       0.41997    0.52433    0.18564    1.000
    N2602    N        0.43504    0.58981    0.13335    1.000
    N2603    N        0.43928    0.61636    0.21879    1.000
    Si2604   Si       0.43510    0.57595    0.23654    1.000
    N2605    N        0.40700    0.55345    0.21338    1.000
    Si2606   Si       0.40071    0.62464    0.23710    1.000
    Si2607   Si       0.45739    0.55152    0.13213    1.000
    Si2608   Si       0.41201    0.68066    0.14556    1.000
    N2609    N        0.42936    0.71625    0.22304    1.000
    N2610    N        0.45055    0.68448    0.16290    1.000
    N2611    N        0.41445    0.59313    0.26795    1.000
    N2612    N        0.45261    0.62547    0.33311    1.000
    Si2613   Si       0.40588    0.50864    0.31051    1.000
    Si2614   Si       0.44030    0.60483    0.36991    1.000
    N2615    N        0.42228    0.50580    0.27038    1.000
    N2616    N        0.45720    0.68603    0.28750    1.000
    N2617    N        0.45301    0.75173    0.32730    1.000
    Si2618   Si       0.43991    0.72033    0.26636    1.000
    Si2619   Si       0.44048    0.66632    0.32427    1.000
    Si2620   Si       0.41143    0.75204    0.32335    1.000
    Si2621   Si       0.43261    0.53370    0.40266    1.000
    N2622    N        0.44297    0.53315    0.44495    1.000
    N2623    N        0.44289    0.59869    0.46694    1.000
    N2624    N        0.45693    0.56613    0.38224    1.000
    Si2625   Si       0.44120    0.68534    0.48419    1.000
    Si2626   Si       0.45180    0.63266    0.44127    1.000
    N2627    N        0.45640    0.63251    0.39887    1.000
    N2628    N        0.41803    0.66048    0.45323    1.000
    Si2629   Si       0.41221    0.74995    0.47708    1.000
    N2630    N        0.40584    0.73018    0.43618    1.000
    Si2631   Si       0.41519    0.74866    0.39633    1.000
    N2632    N        0.43478    0.58855    0.53784    1.000
    N2633    N        0.41774    0.52632    0.57063    1.000
    Si2634   Si       0.43029    0.56603    0.57735    1.000
    N2635    N        0.42675    0.59193    0.61208    1.000
    Si2636   Si       0.42961    0.61674    0.50524    1.000
    N2637    N        0.41986    0.68230    0.56457    1.000
    Si2638   Si       0.41236    0.72224    0.54617    1.000
    N2639    N        0.44514    0.74881    0.55584    1.000
    N2640    N        0.40991    0.74462    0.61410    1.000
    N2641    N        0.45612    0.65166    0.50675    1.000
    N2642    N        0.41714    0.71571    0.50301    1.000
    Si2643   Si       0.42867    0.54873    0.70104    1.000
    Si2644   Si       0.41269    0.60459    0.65728    1.000
    N2645    N        0.41299    0.55997    0.73937    1.000
    N2646    N        0.41539    0.62419    0.70001    1.000
    Si2647   Si       0.41771    0.60455    0.73826    1.000
    N2648    N        0.45774    0.62469    0.65499    1.000
    N2649    N        0.40118    0.56298    0.67062    1.000
    Si2650   Si       0.43306    0.71929    0.64188    1.000
    Si2651   Si       0.42291    0.73254    0.71525    1.000
    N2652    N        0.40778    0.68460    0.65511    1.000
    N2653    N        0.43755    0.74787    0.67704    1.000
    Si2654   Si       0.41843    0.66752    0.69336    1.000
    N2655    N        0.45681    0.72503    0.74178    1.000
    N2656    N        0.44072    0.56477    0.80078    1.000
    Si2657   Si       0.41135    0.54343    0.77956    1.000
    Si2658   Si       0.41261    0.75019    0.84134    1.000
    N2659    N        0.43429    0.72002    0.86278    1.000
    N2660    N        0.42438    0.74784    0.79960    1.000
    N2661    N        0.44680    0.57234    0.87438    1.000
    Si2662   Si       0.42499    0.57430    0.95914    1.000
    Si2663   Si       0.40764    0.57102    0.88837    1.000
    N2664    N        0.44967    0.60067    0.93383    1.000
    N2665    N        0.45410    0.54748    0.97784    1.000
    Si2666   Si       0.43191    0.70474    0.90448    1.000
    N2667    N        0.40430    0.73071    0.92757    1.000
    N2668    N        0.43253    0.64055    0.98440    1.000
    Si2669   Si       0.44869    0.64271    0.94416    1.000
    N2670    N        0.42244    0.66351    0.91584    1.000
    Si2671   Si       0.44105    0.83985    0.03173    1.000
    Si2672   Si       0.41375    0.79435    0.08428    1.000
    N2673    N        0.41365    0.80686    0.04293    1.000
    Si2674   Si       0.40835    0.76390    0.02307    1.000
    N2675    N        0.45759    0.78256    0.09425    1.000
    N2676    N        0.45473    0.85958    0.08152    1.000
    N2677    N        0.41998    0.87920    0.03340    1.000
    Si2678   Si       0.41701    0.88552    0.08290    1.000
    Si2679   Si       0.44619    0.95968    0.09485    1.000
    N2680    N        0.42943    0.95392    0.01682    1.000
    N2681    N        0.43563    0.92452    0.07449    1.000
    Si2682   Si       0.44815    0.91622    0.03349    1.000
    N2683    N        0.43511    0.99486    0.07228    1.000
    Si2684   Si       0.40555    0.98512    0.03735    1.000
    Si2685   Si       0.41384    0.84575    0.14177    1.000
    N2686    N        0.45299    0.79526    0.20835    1.000
    Si2687   Si       0.41085    0.80744    0.21283    1.000
    N2688    N        0.39987    0.83341    0.17987    1.000
    N2689    N        0.46016    0.83735    0.14254    1.000
    N2690    N        0.43035    0.95739    0.13513    1.000
    Si2691   Si       0.40728    0.99305    0.14763    1.000
    N2692    N        0.40194    0.91947    0.18544    1.000
    N2693    N        0.42123    0.88712    0.12900    1.000
    Si2694   Si       0.44161    0.93292    0.17085    1.000
    N2695    N        0.45370    0.96393    0.20068    1.000
    Si2696   Si       0.43408    0.97938    0.23623    1.000
    Si2697   Si       0.41914    0.82357    0.28923    1.000
    N2698    N        0.40921    0.85818    0.31142    1.000
    N2699    N        0.40077    0.82585    0.25023    1.000
    Si2700   Si       0.41512    0.89785    0.29256    1.000
    N2701    N        0.45780    0.90384    0.29203    1.000
    N2702    N        0.46101    0.91007    0.35983    1.000
    Si2703   Si       0.45505    0.81289    0.47913    1.000
    N2704    N        0.43032    0.85134    0.37758    1.000
    N2705    N        0.40984    0.79170    0.39844    1.000
    N2706    N        0.45118    0.76993    0.46911    1.000
    Si2707   Si       0.41459    0.86567    0.48635    1.000
    N2708    N        0.43313    0.84314    0.45186    1.000
    Si2709   Si       0.41707    0.83148    0.41452    1.000
    N2710    N        0.41914    0.90883    0.48909    1.000
    Si2711   Si       0.45409    0.91893    0.46595    1.000
    N2712    N        0.45230    0.90369    0.42479    1.000
    Si2713   Si       0.44630    0.93179    0.39355    1.000
    N2714    N        0.45884    0.96066    0.46737    1.000
    N2715    N        0.43709    0.83592    0.51271    1.000
    Si2716   Si       0.43321    0.77579    0.59582    1.000
    Si2717   Si       0.41987    0.84348    0.60558    1.000
    N2718    N        0.40925    0.80434    0.57043    1.000
    N2719    N        0.45454    0.85489    0.58001    1.000
    Si2720   Si       0.43999    0.98359    0.50019    1.000
    N2721    N        0.44860    0.97051    0.53968    1.000
    Si2722   Si       0.40997    0.97055    0.56058    1.000
    Si2723   Si       0.40787    0.99649    0.62136    1.000
    N2724    N        0.40316    0.95621    0.60752    1.000
    N2725    N        0.42920    0.80514    0.62766    1.000
    N2726    N        0.42276    0.81506    0.69419    1.000
    Si2727   Si       0.42798    0.85289    0.71272    1.000
    Si2728   Si       0.44574    0.79034    0.66609    1.000
    N2729    N        0.41429    0.94988    0.74432    1.000
    Si2730   Si       0.44800    0.97770    0.67688    1.000
    N2731    N        0.42227    0.94117    0.67331    1.000
    N2732    N        0.43014    0.88586    0.62522    1.000
    Si2733   Si       0.39867    0.93180    0.70837    1.000
    N2734    N        0.44629    0.00581    0.64268    1.000
    Si2735   Si       0.40919    0.92209    0.63722    1.000
    N2736    N        0.42072    0.00253    0.70310    1.000
    Si2737   Si       0.42503    0.86471    0.79180    1.000
    N2738    N        0.42350    0.78910    0.85564    1.000
    N2739    N        0.44695    0.84564    0.82499    1.000
    Si2740   Si       0.41072    0.82635    0.83996    1.000
    N2741    N        0.44024    0.85719    0.75387    1.000
    N2742    N        0.42325    0.90477    0.80336    1.000
    N2743    N        0.42244    0.97199    0.80805    1.000
    Si2744   Si       0.44761    0.91570    0.83857    1.000
    Si2745   Si       0.40582    0.99585    0.84102    1.000
    Si2746   Si       0.40517    0.93881    0.78586    1.000
    Si2747   Si       0.42798    0.99138    0.74545    1.000
    N2748    N        0.43521    0.79242    0.91774    1.000
    N2749    N        0.43413    0.83856    0.98773    1.000
    N2750    N        0.44362    0.87260    0.92542    1.000
    Si2751   Si       0.42746    0.76328    0.94728    1.000
    N2752    N        0.40600    0.77957    0.98154    1.000
    Si2753   Si       0.43576    0.87815    0.96913    1.000
    Si2754   Si       0.45918    0.78845    0.88134    1.000
    N2755    N        0.40058    0.84555    0.87718    1.000
    Si2756   Si       0.41038    0.88267    0.89635    1.000
    Si2757   Si       0.43398    0.95042    0.90051    1.000
    N2758    N        0.42829    0.98619    0.87888    1.000
    N2759    N        0.42308    0.91823    0.87479    1.000
    Si2760   Si       0.44666    0.95013    0.97761    1.000
    N2761    N        0.42149    0.95267    0.94297    1.000
    Si2762   Si       0.49212    0.08500    0.04054    1.000
    N2763    N        0.49632    0.12199    0.06601    1.000
    N2764    N        0.49065    0.10556    0.00089    1.000
    N2765    N        0.48530    0.18537    0.08565    1.000
    N2766    N        0.50874    0.17950    0.02395    1.000
    Si2767   Si       0.46591    0.20557    0.11757    1.000
    Si2768   Si       0.46360    0.15081    0.07202    1.000
    Si2769   Si       0.51833    0.13829    0.00679    1.000
    Si2770   Si       0.49454    0.09934    0.15995    1.000
    N2771    N        0.48670    0.03000    0.20039    1.000
    Si2772   Si       0.47690    0.06931    0.21315    1.000
    Si2773   Si       0.47585    0.03684    0.15579    1.000
    N2774    N        0.49620    0.06600    0.13102    1.000
    N2775    N        0.51090    0.09428    0.20024    1.000
    N2776    N        0.51687    0.13552    0.14143    1.000
    Si2777   Si       0.47321    0.21849    0.23479    1.000
    N2778    N        0.50575    0.19038    0.24008    1.000
    N2779    N        0.49440    0.25155    0.21611    1.000
    N2780    N        0.48108    0.22073    0.15620    1.000
    Si2781   Si       0.50086    0.25468    0.17444    1.000
    N2782    N        0.48766    0.07953    0.31819    1.000
    Si2783   Si       0.48575    0.10286    0.27932    1.000
    N2784    N        0.47312    0.03277    0.36490    1.000
    N2785    N        0.51384    0.01624    0.29866    1.000
    N2786    N        0.46257    0.07737    0.25267    1.000
    Si2787   Si       0.48990    0.17982    0.34353    1.000
    N2788    N        0.48491    0.22434    0.34153    1.000
    Si2789   Si       0.50812    0.16095    0.27212    1.000
    N2790    N        0.46776    0.14371    0.27853    1.000
    N2791    N        0.51969    0.17557    0.31121    1.000
    N2792    N        0.49293    0.02096    0.42947    1.000
    Si2793   Si       0.46973    0.04972    0.40595    1.000
    N2794    N        0.48119    0.09029    0.41235    1.000
    Si2795   Si       0.47072    0.11415    0.44801    1.000
    N2796    N        0.46210    0.09424    0.48574    1.000
    Si2797   Si       0.51468    0.11597    0.40180    1.000
    N2798    N        0.50970    0.13567    0.44307    1.000
    N2799    N        0.48955    0.22337    0.49384    1.000
    Si2800   Si       0.47061    0.24717    0.46302    1.000
    N2801    N        0.50809    0.15398    0.37738    1.000
    N2802    N        0.49186    0.05246    0.53101    1.000
    Si2803   Si       0.50001    0.03619    0.56978    1.000
    N2804    N        0.46651    0.05353    0.59358    1.000
    N2805    N        0.45705    0.11798    0.55528    1.000
    N2806    N        0.49741    0.14268    0.61087    1.000
    Si2807   Si       0.47610    0.15139    0.57568    1.000
    N2808    N        0.50356    0.17923    0.55198    1.000
    Si2809   Si       0.47351    0.20031    0.52637    1.000
    N2810    N        0.51594    0.21878    0.60923    1.000
    N2811    N        0.50733    0.05572    0.65168    1.000
    Si2812   Si       0.46746    0.04623    0.63860    1.000
    Si2813   Si       0.46772    0.10114    0.71858    1.000
    N2814    N        0.49218    0.11252    0.68479    1.000
    N2815    N        0.46262    0.05547    0.72644    1.000
    Si2816   Si       0.49153    0.19666    0.70697    1.000
    N2817    N        0.49664    0.23880    0.70486    1.000
    Si2818   Si       0.48354    0.14271    0.65316    1.000
    N2819    N        0.50189    0.17844    0.66834    1.000
    N2820    N        0.49454    0.05710    0.78919    1.000
    Si2821   Si       0.49788    0.09986    0.78670    1.000
    N2822    N        0.48317    0.11783    0.82274    1.000
    Si2823   Si       0.50547    0.03941    0.82689    1.000
    Si2824   Si       0.50874    0.10649    0.85574    1.000
    N2825    N        0.48027    0.12003    0.75447    1.000
    N2826    N        0.50980    0.06416    0.86055    1.000
    Si2827   Si       0.48865    0.03142    0.75493    1.000
    N2828    N        0.47241    0.01192    0.83727    1.000
    Si2829   Si       0.47960    0.16435    0.75812    1.000
    N2830    N        0.48749    0.24689    0.83526    1.000
    N2831    N        0.46857    0.18049    0.79571    1.000
    Si2832   Si       0.46131    0.21341    0.82126    1.000
    Si2833   Si       0.46725    0.08950    0.96880    1.000
    N2834    N        0.48491    0.07440    0.93053    1.000
    N2835    N        0.48306    0.12376    0.88660    1.000
    Si2836   Si       0.50792    0.05040    0.90377    1.000
    N2837    N        0.47040    0.04428    0.98261    1.000
    N2838    N        0.48855    0.01132    0.90546    1.000
    Si2839   Si       0.49698    0.01049    0.99242    1.000
    Si2840   Si       0.49233    0.18873    0.98529    1.000
    N2841    N        0.49210    0.22987    0.97485    1.000
    N2842    N        0.49012    0.19060    0.91959    1.000
    Si2843   Si       0.51121    0.22545    0.93547    1.000
    N2844    N        0.51956    0.15865    0.96787    1.000
    Si2845   Si       0.49765    0.14525    0.92567    1.000
    Si2846   Si       0.47364    0.37100    0.05427    1.000
    N2847    N        0.49525    0.25943    0.03970    1.000
    Si2848   Si       0.49102    0.26619    0.99464    1.000
    N2849    N        0.48391    0.41447    0.04729    1.000
    N2850    N        0.49137    0.46834    0.08756    1.000
    Si2851   Si       0.51486    0.44100    0.06176    1.000
    Si2852   Si       0.48033    0.37623    0.12643    1.000
    N2853    N        0.47835    0.28800    0.15698    1.000
    Si2854   Si       0.47744    0.32463    0.18250    1.000
    Si2855   Si       0.48086    0.28096    0.24485    1.000
    N2856    N        0.46043    0.31219    0.22024    1.000
    N2857    N        0.49383    0.47585    0.15795    1.000
    Si2858   Si       0.47092    0.45851    0.12579    1.000
    Si2859   Si       0.48959    0.44122    0.23434    1.000
    N2860    N        0.47556    0.42227    0.19814    1.000
    N2861    N        0.48123    0.48365    0.22772    1.000
    Si2862   Si       0.49125    0.50530    0.18958    1.000
    N2863    N        0.48103    0.41830    0.13494    1.000
    Si2864   Si       0.50419    0.43463    0.16869    1.000
    N2865    N        0.49757    0.31304    0.32839    1.000
    Si2866   Si       0.47077    0.34635    0.31529    1.000
    N2867    N        0.46743    0.35245    0.27433    1.000
    N2868    N        0.51697    0.30035    0.25951    1.000
    N2869    N        0.48111    0.38490    0.33249    1.000
    Si2870   Si       0.49802    0.41540    0.30550    1.000
    Si2871   Si       0.47473    0.48600    0.33127    1.000
    N2872    N        0.47620    0.41886    0.26855    1.000
    N2873    N        0.49757    0.44784    0.33805    1.000
    Si2874   Si       0.47745    0.41555    0.36479    1.000
    Si2875   Si       0.49213    0.29878    0.36968    1.000
    N2876    N        0.50244    0.33004    0.39946    1.000
    N2877    N        0.47644    0.33777    0.45395    1.000
    N2878    N        0.50389    0.26990    0.44234    1.000
    Si2879   Si       0.46890    0.35568    0.41513    1.000
    Si2880   Si       0.50978    0.31270    0.43947    1.000
    N2881    N        0.51781    0.26679    0.38026    1.000
    Si2882   Si       0.49617    0.42206    0.42848    1.000
    Si2883   Si       0.48835    0.43402    0.48614    1.000
    N2884    N        0.46223    0.43228    0.45187    1.000
    Si2885   Si       0.48648    0.49478    0.40317    1.000
    N2886    N        0.50375    0.45380    0.39903    1.000
    N2887    N        0.49124    0.39051    0.39947    1.000
    Si2888   Si       0.48889    0.32960    0.59565    1.000
    N2889    N        0.49125    0.30287    0.51477    1.000
    Si2890   Si       0.48750    0.26865    0.54703    1.000
    N2891    N        0.47244    0.36337    0.57269    1.000
    N2892    N        0.47008    0.29418    0.57830    1.000
    Si2893   Si       0.50097    0.38603    0.54844    1.000
    N2894    N        0.47662    0.40493    0.51696    1.000
    N2895    N        0.47327    0.49347    0.55750    1.000
    Si2896   Si       0.50677    0.48286    0.58030    1.000
    N2897    N        0.48955    0.45543    0.60812    1.000
    Si2898   Si       0.47171    0.49939    0.51358    1.000
    N2899    N        0.50042    0.47082    0.50217    1.000
    Si2900   Si       0.48754    0.31798    0.67115    1.000
    N2901    N        0.50068    0.35344    0.69382    1.000
    Si2902   Si       0.48661    0.36488    0.73474    1.000
    N2903    N        0.47477    0.33990    0.63654    1.000
    Si2904   Si       0.47063    0.27197    0.72283    1.000
    Si2905   Si       0.46698    0.38042    0.65227    1.000
    N2906    N        0.50729    0.28817    0.74195    1.000
    N2907    N        0.48417    0.48066    0.74036    1.000
    N2908    N        0.49043    0.40776    0.74542    1.000
    N2909    N        0.50915    0.39871    0.64848    1.000
    N2910    N        0.50914    0.49740    0.67810    1.000
    Si2911   Si       0.47392    0.48484    0.69644    1.000
    N2912    N        0.45839    0.45118    0.67288    1.000
    N2913    N        0.49455    0.31877    0.80642    1.000
    Si2914   Si       0.50818    0.31617    0.84590    1.000
    Si2915   Si       0.46189    0.34444    0.79905    1.000
    N2916    N        0.47228    0.30648    0.86948    1.000
    N2917    N        0.46944    0.37977    0.82263    1.000
    Si2918   Si       0.51998    0.31893    0.77135    1.000
    Si2919   Si       0.50250    0.38427    0.85105    1.000
    Si2920   Si       0.49345    0.45167    0.82896    1.000
    Si2921   Si       0.46710    0.44339    0.75747    1.000
    N2922    N        0.47155    0.45775    0.86683    1.000
    N2923    N        0.46209    0.44228    0.79958    1.000
    Si2924   Si       0.47717    0.26272    0.87452    1.000
    N2925    N        0.51266    0.33225    0.92516    1.000
    Si2926   Si       0.46964    0.37761    0.98306    1.000
    Si2927   Si       0.47275    0.34937    0.90977    1.000
    N2928    N        0.51318    0.37880    0.98284    1.000
    N2929    N        0.50383    0.25959    0.90900    1.000
    N2930    N        0.45693    0.28981    0.98635    1.000
    N2931    N        0.48433    0.38811    0.88977    1.000
    Si2932   Si       0.46023    0.50105    0.87248    1.000
    Si2933   Si       0.47685    0.42933    0.90224    1.000
    N2934    N        0.50628    0.43481    0.93488    1.000
    Si2935   Si       0.47539    0.55905    0.01460    1.000
    N2936    N        0.46898    0.52013    0.03437    1.000
    Si2937   Si       0.48163    0.50839    0.07429    1.000
    N2938    N        0.49358    0.57389    0.12008    1.000
    N2939    N        0.51639    0.57064    0.00880    1.000
    N2940    N        0.48379    0.64145    0.10160    1.000
    N2941    N        0.50190    0.64159    0.01083    1.000
    N2942    N        0.47864    0.71187    0.08000    1.000
    Si2943   Si       0.47940    0.74235    0.99748    1.000
    N2944    N        0.48779    0.62499    0.16670    1.000
    Si2945   Si       0.47217    0.61114    0.12959    1.000
    N2946    N        0.51189    0.60574    0.21767    1.000
    N2947    N        0.46923    0.55226    0.24181    1.000
    Si2948   Si       0.50777    0.56405    0.22544    1.000
    N2949    N        0.46030    0.53344    0.17334    1.000
    Si2950   Si       0.51261    0.74962    0.16064    1.000
    Si2951   Si       0.47780    0.63299    0.20622    1.000
    N2952    N        0.48794    0.73561    0.19468    1.000
    Si2953   Si       0.46358    0.70029    0.19920    1.000
    N2954    N        0.48731    0.67081    0.22482    1.000
    N2955    N        0.50107    0.57285    0.32745    1.000
    Si2956   Si       0.49379    0.61513    0.32154    1.000
    Si2957   Si       0.49705    0.55497    0.36706    1.000
    N2958    N        0.49094    0.51209    0.36174    1.000
    Si2959   Si       0.51276    0.54126    0.29894    1.000
    N2960    N        0.50150    0.62992    0.28105    1.000
    N2961    N        0.51307    0.63454    0.35655    1.000
    Si2962   Si       0.46363    0.51090    0.25844    1.000
    N2963    N        0.48669    0.50611    0.29437    1.000
    N2964    N        0.46409    0.68637    0.35473    1.000
    Si2965   Si       0.47351    0.72865    0.35918    1.000
    Si2966   Si       0.49323    0.67051    0.26808    1.000
    N2967    N        0.46751    0.75191    0.26198    1.000
    Si2968   Si       0.46544    0.56327    0.46791    1.000
    N2969    N        0.50821    0.57560    0.46102    1.000
    N2970    N        0.49401    0.64185    0.44814    1.000
    N2971    N        0.51090    0.68737    0.40143    1.000
    N2972    N        0.45785    0.74188    0.39848    1.000
    Si2973   Si       0.47120    0.74277    0.44131    1.000
    N2974    N        0.47473    0.70238    0.46127    1.000
    N2975    N        0.51375    0.75218    0.44301    1.000
    Si2976   Si       0.48699    0.65881    0.38079    1.000
    Si2977   Si       0.50972    0.68141    0.44485    1.000
    N2978    N        0.47611    0.56775    0.58015    1.000
    Si2979   Si       0.47664    0.57475    0.53728    1.000
    N2980    N        0.50448    0.60792    0.53799    1.000
    N2981    N        0.47556    0.54266    0.50714    1.000
    Si2982   Si       0.46871    0.60303    0.61515    1.000
    Si2983   Si       0.51305    0.55736    0.59951    1.000
    N2984    N        0.47584    0.64297    0.59709    1.000
    Si2985   Si       0.49646    0.64920    0.52476    1.000
    N2986    N        0.49695    0.68541    0.54987    1.000
    Si2987   Si       0.46340    0.68165    0.57824    1.000
    N2988    N        0.46223    0.69869    0.61826    1.000
    Si2989   Si       0.46589    0.62065    0.69985    1.000
    N2990    N        0.51072    0.61359    0.69578    1.000
    Si2991   Si       0.50232    0.57420    0.67730    1.000
    N2992    N        0.49963    0.57769    0.63580    1.000
    N2993    N        0.46338    0.57326    0.69655    1.000
    N2994    N        0.46042    0.61808    0.74353    1.000
    N2995    N        0.46077    0.67121    0.69851    1.000
    N2996    N        0.51738    0.67067    0.64968    1.000
    Si2997   Si       0.48521    0.69317    0.72674    1.000
    Si2998   Si       0.47733    0.66149    0.63724    1.000
    N2999    N        0.52300    0.74858    0.65085    1.000
    N3000    N        0.50295    0.58427    0.82777    1.000
    Si3001   Si       0.50142    0.62406    0.84265    1.000
    N3002    N        0.47867    0.52152    0.83989    1.000
    Si3003   Si       0.46490    0.56357    0.83478    1.000
    Si3004   Si       0.49490    0.63261    0.76613    1.000
    N3005    N        0.48779    0.64386    0.80752    1.000
    N3006    N        0.48352    0.72160    0.80822    1.000
    Si3007   Si       0.50492    0.68433    0.80460    1.000
    N3008    N        0.50509    0.68523    0.85475    1.000
    Si3009   Si       0.47819    0.72017    0.85795    1.000
    N3010    N        0.51105    0.67056    0.75431    1.000
    Si3011   Si       0.46099    0.74449    0.77891    1.000
    N3012    N        0.51571    0.57045    0.91492    1.000
    Si3013   Si       0.47871    0.59042    0.90333    1.000
    N3014    N        0.48773    0.62756    0.88316    1.000
    Si3015   Si       0.47231    0.51642    0.95294    1.000
    N3016    N        0.47981    0.51192    0.90993    1.000
    N3017    N        0.51200    0.51220    0.97146    1.000
    N3018    N        0.50796    0.71203    0.98389    1.000
    N3019    N        0.48934    0.65938    0.94382    1.000
    Si3020   Si       0.49602    0.72470    0.93880    1.000
    N3021    N        0.47710    0.70814    0.90347    1.000
    Si3022   Si       0.51287    0.66857    0.97891    1.000
    N3023    N        0.46633    0.74859    0.95725    1.000
    Si3024   Si       0.49767    0.66766    0.89793    1.000
    N3025    N        0.48474    0.83604    0.02858    1.000
    Si3026   Si       0.49829    0.85883    0.06493    1.000
    N3027    N        0.50740    0.77215    0.01273    1.000
    N3028    N        0.51450    0.82538    0.09646    1.000
    Si3029   Si       0.48203    0.80917    0.11679    1.000
    N3030    N        0.49150    0.90468    0.03970    1.000
    N3031    N        0.48771    0.95716    0.09229    1.000
    Si3032   Si       0.50784    0.92167    0.07596    1.000
    N3033    N        0.50568    0.89320    0.10997    1.000
    Si3034   Si       0.50789    0.91201    0.99831    1.000
    N3035    N        0.49275    0.00644    0.03564    1.000
    Si3036   Si       0.51563    0.98031    0.11836    1.000
    Si3037   Si       0.48120    0.76674    0.22500    1.000
    N3038    N        0.49603    0.78965    0.15436    1.000
    N3039    N        0.49686    0.84640    0.20204    1.000
    Si3040   Si       0.47667    0.81861    0.17874    1.000
    Si3041   Si       0.46590    0.87936    0.12774    1.000
    N3042    N        0.52050    0.78548    0.22925    1.000
    N3043    N        0.52150    0.96883    0.21054    1.000
    Si3044   Si       0.50322    0.95076    0.24566    1.000
    N3045    N        0.49629    0.90824    0.23643    1.000
    N3046    N        0.47315    0.90285    0.16557    1.000
    Si3047   Si       0.48696    0.98701    0.19146    1.000
    Si3048   Si       0.49949    0.88996    0.19665    1.000
    N3049    N        0.49169    0.99640    0.14959    1.000
    Si3050   Si       0.50088    0.83056    0.30556    1.000
    N3051    N        0.49608    0.86206    0.33372    1.000
    Si3052   Si       0.47315    0.77464    0.29785    1.000
    N3053    N        0.51067    0.78981    0.31487    1.000
    Si3054   Si       0.47008    0.86844    0.36815    1.000
    N3055    N        0.46111    0.81696    0.29024    1.000
    Si3056   Si       0.49677    0.88862    0.27575    1.000
    N3057    N        0.47042    0.97461    0.26031    1.000
    Si3058   Si       0.47438    0.99841    0.29411    1.000
    N3059    N        0.47279    0.96860    0.32816    1.000
    Si3060   Si       0.47930    0.92473    0.32347    1.000
    Si3061   Si       0.48374    0.98970    0.36465    1.000
    N3062    N        0.51859    0.91238    0.30575    1.000
    N3063    N        0.49298    0.85632    0.40179    1.000
    Si3064   Si       0.47512    0.86403    0.44176    1.000
    N3065    N        0.49079    0.82551    0.46013    1.000
    N3066    N        0.48798    0.89211    0.47454    1.000
    N3067    N        0.46445    0.97148    0.39928    1.000
    Si3068   Si       0.48413    0.97716    0.43770    1.000
    N3069    N        0.49020    0.80359    0.54087    1.000
    N3070    N        0.50962    0.86913    0.53551    1.000
    N3071    N        0.47983    0.77318    0.60264    1.000
    Si3072   Si       0.47233    0.84350    0.54219    1.000
    Si3073   Si       0.48313    0.76612    0.55944    1.000
    Si3074   Si       0.46914    0.88904    0.60365    1.000
    Si3075   Si       0.48567    0.95570    0.55613    1.000
    N3076    N        0.50526    0.99147    0.57208    1.000
    N3077    N        0.47804    0.92702    0.58787    1.000
    N3078    N        0.51559    0.93934    0.52752    1.000
    Si3079   Si       0.51624    0.90004    0.50494    1.000
    Si3080   Si       0.50821    0.78591    0.63081    1.000
    Si3081   Si       0.49619    0.84891    0.66683    1.000
    N3082    N        0.47102    0.86125    0.69936    1.000
    N3083    N        0.48693    0.80709    0.66267    1.000
    Si3084   Si       0.48107    0.87285    0.73922    1.000
    N3085    N        0.50065    0.87665    0.63095    1.000
    N3086    N        0.51936    0.77842    0.72721    1.000
    N3087    N        0.48074    0.97271    0.70325    1.000
    Si3088   Si       0.49074    0.95798    0.74374    1.000
    N3089    N        0.49169    0.91214    0.74755    1.000
    Si3090   Si       0.48362    0.85074    0.84672    1.000
    N3091    N        0.48505    0.78108    0.78473    1.000
    Si3092   Si       0.50166    0.80409    0.75382    1.000
    N3093    N        0.48967    0.76376    0.85833    1.000
    N3094    N        0.51394    0.84540    0.75348    1.000
    Si3095   Si       0.50457    0.75885    0.81617    1.000
    N3096    N        0.48552    0.89342    0.85505    1.000
    N3097    N        0.47867    0.94417    0.82112    1.000
    N3098    N        0.47008    0.99245    0.76465    1.000
    Si3099   Si       0.51150    0.92057    0.83223    1.000
    Si3100   Si       0.46418    0.98224    0.80704    1.000
    N3101    N        0.49902    0.82958    0.95503    1.000
    N3102    N        0.48479    0.82374    0.88119    1.000
    Si3103   Si       0.48079    0.84694    0.91811    1.000
    N3104    N        0.51202    0.87834    0.91922    1.000
    Si3105   Si       0.50425    0.81286    0.99542    1.000
    N3106    N        0.47998    0.97704    0.96919    1.000
    Si3107   Si       0.49526    0.97495    0.92840    1.000
    Si3108   Si       0.50365    0.91233    0.89200    1.000
    N3109    N        0.47575    0.94206    0.90668    1.000
    N3110    N        0.46338    0.90954    0.98480    1.000
    N3111    N        0.55295    0.09385    0.10422    1.000
    N3112    N        0.55690    0.12426    0.01929    1.000
    N3113    N        0.52728    0.06017    0.04191    1.000
    Si3114   Si       0.52933    0.01865    0.05312    1.000
    Si3115   Si       0.56536    0.08094    0.03010    1.000
    Si3116   Si       0.52757    0.12918    0.09760    1.000
    N3117    N        0.52504    0.01587    0.09500    1.000
    Si3118   Si       0.53505    0.05443    0.11490    1.000
    N3119    N        0.55122    0.16143    0.08162    1.000
    N3120    N        0.54448    0.22720    0.07602    1.000
    Si3121   Si       0.57090    0.21243    0.10584    1.000
    Si3122   Si       0.52251    0.19251    0.06363    1.000
    Si3123   Si       0.54164    0.11602    0.22259    1.000
    N3124    N        0.55865    0.04063    0.14679    1.000
    N3125    N        0.56730    0.01013    0.24264    1.000
    N3126    N        0.57519    0.21532    0.20575    1.000
    N3127    N        0.54880    0.15305    0.19989    1.000
    Si3128   Si       0.55182    0.15610    0.15749    1.000
    Si3129   Si       0.57339    0.23171    0.16641    1.000
    N3130    N        0.55513    0.19670    0.14311    1.000
    Si3131   Si       0.54596    0.18865    0.22276    1.000
    N3132    N        0.54661    0.04271    0.35931    1.000
    N3133    N        0.55290    0.07015    0.29770    1.000
    Si3134   Si       0.56253    0.10788    0.27943    1.000
    N3135    N        0.52188    0.12129    0.26160    1.000
    Si3136   Si       0.52301    0.05286    0.32128    1.000
    Si3137   Si       0.56424    0.17383    0.30636    1.000
    N3138    N        0.56374    0.18288    0.26252    1.000
    Si3139   Si       0.52339    0.23964    0.34530    1.000
    N3140    N        0.54558    0.21172    0.37033    1.000
    Si3141   Si       0.57633    0.06910    0.37635    1.000
    N3142    N        0.53332    0.06354    0.47142    1.000
    N3143    N        0.55447    0.09733    0.40118    1.000
    Si3144   Si       0.52875    0.02581    0.45437    1.000
    N3145    N        0.57419    0.11759    0.46604    1.000
    N3146    N        0.52476    0.20627    0.43424    1.000
    Si3147   Si       0.53737    0.13955    0.47750    1.000
    N3148    N        0.57559    0.24407    0.41963    1.000
    Si3149   Si       0.52816    0.21066    0.47698    1.000
    Si3150   Si       0.53473    0.18073    0.39992    1.000
    N3151    N        0.57580    0.16426    0.40596    1.000
    Si3152   Si       0.53224    0.24542    0.41657    1.000
    N3153    N        0.55332    0.24422    0.48528    1.000
    N3154    N        0.53737    0.04954    0.58840    1.000
    N3155    N        0.55153    0.12197    0.57067    1.000
    Si3156   Si       0.56308    0.07906    0.56674    1.000
    N3157    N        0.56014    0.06944    0.52475    1.000
    N3158    N        0.52033    0.12293    0.51206    1.000
    Si3159   Si       0.51902    0.07923    0.50946    1.000
    Si3160   Si       0.54074    0.13644    0.60942    1.000
    Si3161   Si       0.53791    0.15464    0.53897    1.000
    Si3162   Si       0.52614    0.21275    0.56862    1.000
    N3163    N        0.56472    0.18986    0.55882    1.000
    N3164    N        0.52657    0.25098    0.55066    1.000
    N3165    N        0.54807    0.17680    0.49832    1.000
    N3166    N        0.55765    0.07881    0.70329    1.000
    Si3167   Si       0.53884    0.03460    0.63046    1.000
    Si3168   Si       0.52723    0.08705    0.67291    1.000
    N3169    N        0.55253    0.11461    0.64796    1.000
    Si3170   Si       0.57463    0.02726    0.74595    1.000
    Si3171   Si       0.56633    0.09713    0.74586    1.000
    Si3172   Si       0.53207    0.19761    0.64323    1.000
    N3173    N        0.55548    0.23001    0.66410    1.000
    N3174    N        0.56203    0.17075    0.62562    1.000
    N3175    N        0.54100    0.10854    0.77877    1.000
    N3176    N        0.54696    0.12338    0.84902    1.000
    N3177    N        0.53905    0.01042    0.82278    1.000
    N3178    N        0.53090    0.02029    0.75146    1.000
    Si3179   Si       0.56356    0.13000    0.80890    1.000
    N3180    N        0.53920    0.23736    0.78321    1.000
    N3181    N        0.55940    0.22716    0.85198    1.000
    Si3182   Si       0.55282    0.19642    0.76953    1.000
    N3183    N        0.56759    0.17474    0.80515    1.000
    Si3184   Si       0.52979    0.24770    0.82427    1.000
    N3185    N        0.51860    0.18187    0.74498    1.000
    N3186    N        0.53650    0.01101    0.97646    1.000
    N3187    N        0.54817    0.05230    0.91636    1.000
    Si3188   Si       0.55748    0.04277    0.95720    1.000
    N3189    N        0.56926    0.06710    0.99026    1.000
    Si3190   Si       0.55518    0.16923    0.94513    1.000
    Si3191   Si       0.57253    0.13610    0.88094    1.000
    N3192    N        0.55280    0.21348    0.94147    1.000
    N3193    N        0.54340    0.14422    0.91146    1.000
    N3194    N        0.56036    0.28766    0.03431    1.000
    N3195    N        0.53569    0.29482    0.09329    1.000
    Si3196   Si       0.53366    0.33990    0.08895    1.000
    Si3197   Si       0.53346    0.26618    0.05899    1.000
    Si3198   Si       0.53628    0.36487    0.01659    1.000
    N3199    N        0.57237    0.36016    0.08908    1.000
    N3200    N        0.51506    0.35271    0.05163    1.000
    N3201    N        0.57222    0.38661    0.02737    1.000
    N3202    N        0.54649    0.42180    0.08457    1.000
    N3203    N        0.53871    0.47408    0.03745    1.000
    N3204    N        0.56781    0.48529    0.11094    1.000
    Si3205   Si       0.55156    0.49970    0.07391    1.000
    Si3206   Si       0.56203    0.44387    0.12116    1.000
    Si3207   Si       0.55933    0.28154    0.12631    1.000
    Si3208   Si       0.53944    0.32704    0.23438    1.000
    Si3209   Si       0.54775    0.34698    0.16167    1.000
    N3210    N        0.57560    0.31980    0.14267    1.000
    N3211    N        0.53989    0.26212    0.16073    1.000
    N3212    N        0.57504    0.37255    0.18155    1.000
    N3213    N        0.55771    0.36603    0.24469    1.000
    N3214    N        0.52047    0.33185    0.19489    1.000
    N3215    N        0.52035    0.35800    0.12683    1.000
    N3216    N        0.54568    0.43384    0.16006    1.000
    N3217    N        0.53270    0.43083    0.23097    1.000
    N3218    N        0.54963    0.35725    0.35023    1.000
    Si3219   Si       0.52841    0.29877    0.30180    1.000
    N3220    N        0.57027    0.30964    0.30859    1.000
    N3221    N        0.53820    0.25734    0.31020    1.000
    Si3222   Si       0.56011    0.39343    0.32996    1.000
    N3223    N        0.53793    0.40594    0.29615    1.000
    Si3224   Si       0.55816    0.40888    0.25814    1.000
    Si3225   Si       0.53068    0.45689    0.36538    1.000
    N3226    N        0.55432    0.41933    0.36364    1.000
    N3227    N        0.55462    0.49359    0.37101    1.000
    Si3228   Si       0.57066    0.35198    0.44858    1.000
    Si3229   Si       0.52673    0.36566    0.38617    1.000
    N3230    N        0.54107    0.32643    0.46631    1.000
    N3231    N        0.55540    0.37509    0.41557    1.000
    Si3232   Si       0.56746    0.42255    0.46489    1.000
    N3233    N        0.52476    0.42135    0.46184    1.000
    Si3234   Si       0.55520    0.33935    0.56185    1.000
    N3235    N        0.56252    0.30540    0.53262    1.000
    N3236    N        0.53232    0.32663    0.59745    1.000
    Si3237   Si       0.53017    0.32259    0.50991    1.000
    N3238    N        0.53118    0.35993    0.53121    1.000
    Si3239   Si       0.56128    0.26196    0.52565    1.000
    N3240    N        0.54321    0.47848    0.55801    1.000
    Si3241   Si       0.54339    0.47728    0.51283    1.000
    Si3242   Si       0.57085    0.46007    0.58740    1.000
    N3243    N        0.57220    0.44623    0.50055    1.000
    N3244    N        0.52252    0.40937    0.57577    1.000
    Si3245   Si       0.51947    0.42478    0.61663    1.000
    Si3246   Si       0.53362    0.37753    0.67750    1.000
    Si3247   Si       0.55000    0.31487    0.63534    1.000
    N3248    N        0.56263    0.35219    0.65544    1.000
    N3249    N        0.52356    0.29496    0.65981    1.000
    Si3250   Si       0.53192    0.26113    0.68784    1.000
    N3251    N        0.56854    0.26036    0.71743    1.000
    N3252    N        0.55364    0.49276    0.73644    1.000
    N3253    N        0.55033    0.45375    0.62536    1.000
    Si3254   Si       0.53651    0.48985    0.64095    1.000
    N3255    N        0.55380    0.40204    0.70742    1.000
    N3256    N        0.56014    0.29998    0.77360    1.000
    N3257    N        0.53901    0.28416    0.84806    1.000
    N3258    N        0.53070    0.35304    0.85228    1.000
    Si3259   Si       0.54565    0.26584    0.75356    1.000
    N3260    N        0.52625    0.35731    0.75534    1.000
    Si3261   Si       0.57325    0.35751    0.85087    1.000
    Si3262   Si       0.56965    0.26478    0.87248    1.000
    N3263    N        0.56285    0.41934    0.77735    1.000
    Si3264   Si       0.56180    0.45855    0.79792    1.000
    Si3265   Si       0.56171    0.42898    0.85906    1.000
    N3266    N        0.52276    0.42217    0.84342    1.000
    N3267    N        0.52129    0.47512    0.80285    1.000
    Si3268   Si       0.51635    0.49733    0.76175    1.000
    Si3269   Si       0.53532    0.40016    0.74898    1.000
    Si3270   Si       0.52489    0.29090    0.92761    1.000
    N3271    N        0.52442    0.28320    0.97135    1.000
    N3272    N        0.56044    0.33899    0.98549    1.000
    Si3273   Si       0.53811    0.35814    0.95211    1.000
    N3274    N        0.56495    0.27595    0.91414    1.000
    Si3275   Si       0.56010    0.29391    0.99154    1.000
    N3276    N        0.56132    0.38486    0.92940    1.000
    N3277    N        0.56397    0.44845    0.96810    1.000
    Si3278   Si       0.54792    0.42562    0.93473    1.000
    N3279    N        0.55147    0.50578    0.92038    1.000
    Si3280   Si       0.56721    0.48808    0.88247    1.000
    Si3281   Si       0.54682    0.48734    0.96009    1.000
    N3282    N        0.56338    0.44726    0.89879    1.000
    N3283    N        0.53515    0.60441    0.06941    1.000
    N3284    N        0.57012    0.61465    0.01443    1.000
    Si3285   Si       0.52755    0.56774    0.09344    1.000
    Si3286   Si       0.52781    0.60896    0.02607    1.000
    N3287    N        0.52090    0.52908    0.07565    1.000
    Si3288   Si       0.52758    0.63872    0.09960    1.000
    N3289    N        0.54517    0.67045    0.07725    1.000
    N3290    N        0.54489    0.73239    0.06412    1.000
    N3291    N        0.56785    0.75029    0.99900    1.000
    Si3292   Si       0.51947    0.70626    0.08787    1.000
    N3293    N        0.56291    0.55574    0.11960    1.000
    N3294    N        0.56755    0.58737    0.18272    1.000
    Si3295   Si       0.56755    0.54172    0.19653    1.000
    N3296    N        0.54582    0.61960    0.13441    1.000
    Si3297   Si       0.53241    0.61815    0.17743    1.000
    N3298    N        0.52429    0.53482    0.19799    1.000
    Si3299   Si       0.57035    0.72948    0.14172    1.000
    N3300    N        0.55711    0.64941    0.19284    1.000
    N3301    N        0.56620    0.71650    0.23124    1.000
    N3302    N        0.55201    0.75368    0.17632    1.000
    Si3303   Si       0.55583    0.75732    0.21873    1.000
    N3304    N        0.52694    0.72277    0.12786    1.000
    N3305    N        0.52914    0.56466    0.26519    1.000
    N3306    N        0.55379    0.52741    0.30605    1.000
    Si3307   Si       0.53131    0.60823    0.25827    1.000
    Si3308   Si       0.56893    0.54764    0.27222    1.000
    N3309    N        0.57242    0.61107    0.24945    1.000
    N3310    N        0.56810    0.62395    0.31527    1.000
    Si3311   Si       0.55954    0.63550    0.35339    1.000
    Si3312   Si       0.56462    0.70991    0.27571    1.000
    N3313    N        0.56824    0.67724    0.35938    1.000
    N3314    N        0.56138    0.75081    0.29047    1.000
    N3315    N        0.52631    0.69458    0.28365    1.000
    N3316    N        0.51714    0.73268    0.35246    1.000
    N3317    N        0.55599    0.62378    0.43802    1.000
    Si3318   Si       0.56089    0.58957    0.41132    1.000
    N3319    N        0.56956    0.55784    0.43848    1.000
    Si3320   Si       0.53545    0.54154    0.46182    1.000
    Si3321   Si       0.55376    0.52272    0.40497    1.000
    N3322    N        0.53501    0.56299    0.38712    1.000
    Si3323   Si       0.52542    0.61787    0.46749    1.000
    N3324    N        0.55174    0.51700    0.49711    1.000
    N3325    N        0.51800    0.51597    0.42787    1.000
    N3326    N        0.55179    0.69179    0.45113    1.000
    N3327    N        0.57177    0.73076    0.40120    1.000
    Si3328   Si       0.55418    0.73332    0.44182    1.000
    Si3329   Si       0.54207    0.70714    0.37864    1.000
    Si3330   Si       0.54628    0.60443    0.54511    1.000
    N3331    N        0.54738    0.57374    0.57922    1.000
    N3332    N        0.56371    0.58242    0.51265    1.000
    N3333    N        0.52010    0.51602    0.60986    1.000
    N3334    N        0.54754    0.70493    0.59410    1.000
    Si3335   Si       0.53207    0.71027    0.55527    1.000
    N3336    N        0.56784    0.70298    0.53164    1.000
    Si3337   Si       0.56999    0.66363    0.51566    1.000
    N3338    N        0.57357    0.64001    0.55050    1.000
    N3339    N        0.53273    0.64750    0.49998    1.000
    N3340    N        0.52556    0.75279    0.54774    1.000
    Si3341   Si       0.54516    0.51377    0.69882    1.000
    Si3342   Si       0.54088    0.59178    0.72397    1.000
    N3343    N        0.56626    0.61319    0.65227    1.000
    N3344    N        0.53134    0.55334    0.70304    1.000
    N3345    N        0.57031    0.50831    0.66220    1.000
    Si3346   Si       0.53776    0.70786    0.63643    1.000
    Si3347   Si       0.54684    0.68470    0.73105    1.000
    N3348    N        0.56247    0.65713    0.70177    1.000
    N3349    N        0.51989    0.71124    0.70874    1.000
    Si3350   Si       0.53054    0.75204    0.69536    1.000
    Si3351   Si       0.53848    0.64007    0.67127    1.000
    Si3352   Si       0.53081    0.57562    0.79618    1.000
    N3353    N        0.57042    0.57381    0.81101    1.000
    N3354    N        0.54538    0.62946    0.84500    1.000
    N3355    N        0.52509    0.60014    0.76232    1.000
    Si3356   Si       0.57204    0.59464    0.84920    1.000
    N3357    N        0.54035    0.51652    0.86129    1.000
    Si3358   Si       0.51947    0.51587    0.82297    1.000
    N3359    N        0.51937    0.53492    0.78364    1.000
    N3360    N        0.54764    0.68851    0.81086    1.000
    Si3361   Si       0.55097    0.67215    0.85563    1.000
    Si3362   Si       0.53783    0.54530    0.98218    1.000
    Si3363   Si       0.55504    0.58615    0.92444    1.000
    N3364    N        0.56830    0.56781    0.96014    1.000
    Si3365   Si       0.51936    0.52771    0.89935    1.000
    N3366    N        0.57523    0.62346    0.93781    1.000
    N3367    N        0.57302    0.51305    0.98734    1.000
    Si3368   Si       0.55013    0.72120    0.97235    1.000
    Si3369   Si       0.57226    0.66622    0.93075    1.000
    N3370    N        0.54253    0.67086    0.89993    1.000
    N3371    N        0.55408    0.67825    0.96756    1.000
    N3372    N        0.53946    0.73907    0.93142    1.000
    N3373    N        0.54256    0.85915    0.05176    1.000
    Si3374   Si       0.55535    0.82601    0.07753    1.000
    Si3375   Si       0.55637    0.85790    0.01143    1.000
    N3376    N        0.56396    0.79201    0.05617    1.000
    Si3377   Si       0.54270    0.76205    0.03277    1.000
    N3378    N        0.54743    0.93789    0.06818    1.000
    Si3379   Si       0.56349    0.95651    0.03296    1.000
    N3380    N        0.56829    0.99919    0.04324    1.000
    Si3381   Si       0.57353    0.93667    0.10424    1.000
    N3382    N        0.53721    0.94531    0.99934    1.000
    Si3383   Si       0.52454    0.82819    0.23251    1.000
    N3384    N        0.56721    0.84239    0.22590    1.000
    Si3385   Si       0.53698    0.90451    0.14100    1.000
    N3386    N        0.53900    0.89435    0.18187    1.000
    Si3387   Si       0.56003    0.97124    0.22632    1.000
    N3388    N        0.57503    0.89590    0.11983    1.000
    Si3389   Si       0.57119    0.88408    0.21038    1.000
    N3390    N        0.54532    0.95010    0.13329    1.000
    Si3391   Si       0.56731    0.85796    0.27338    1.000
    N3392    N        0.54993    0.84406    0.35995    1.000
    N3393    N        0.56917    0.78060    0.35249    1.000
    Si3394   Si       0.53797    0.76035    0.32735    1.000
    N3395    N        0.57336    0.88127    0.31290    1.000
    N3396    N        0.52140    0.85235    0.27245    1.000
    Si3397   Si       0.53682    0.88034    0.34040    1.000
    N3398    N        0.54200    0.95873    0.26622    1.000
    Si3399   Si       0.55918    0.92349    0.29013    1.000
    Si3400   Si       0.54947    0.99775    0.28328    1.000
    Si3401   Si       0.55998    0.00210    0.35689    1.000
    N3402    N        0.56793    0.89968    0.25289    1.000
    N3403    N        0.52555    0.97803    0.36895    1.000
    N3404    N        0.57830    0.00836    0.31480    1.000
    N3405    N        0.55668    0.88612    0.49365    1.000
    N3406    N        0.55906    0.86850    0.42457    1.000
    Si3407   Si       0.53765    0.84105    0.40047    1.000
    N3408    N        0.54339    0.80260    0.41684    1.000
    N3409    N        0.53970    0.79581    0.49230    1.000
    Si3410   Si       0.57292    0.77708    0.39664    1.000
    Si3411   Si       0.52112    0.79468    0.45178    1.000
    Si3412   Si       0.54125    0.94605    0.39285    1.000
    N3413    N        0.56443    0.00818    0.43961    1.000
    N3414    N        0.57048    0.95271    0.49166    1.000
    N3415    N        0.51887    0.95248    0.43123    1.000
    Si3416   Si       0.55783    0.96501    0.45094    1.000
    N3417    N        0.52142    0.99740    0.48518    1.000
    N3418    N        0.54427    0.90919    0.37325    1.000
    N3419    N        0.56292    0.82522    0.54337    1.000
    Si3420   Si       0.53267    0.79583    0.53397    1.000
    Si3421   Si       0.55581    0.86632    0.53427    1.000
    N3422    N        0.53693    0.81194    0.61399    1.000
    Si3423   Si       0.57596    0.82956    0.61871    1.000
    N3424    N        0.57142    0.87292    0.61665    1.000
    Si3425   Si       0.54403    0.97793    0.58671    1.000
    N3426    N        0.56504    0.98636    0.54918    1.000
    Si3427   Si       0.54014    0.97347    0.51469    1.000
    N3428    N        0.56138    0.93951    0.60294    1.000
    N3429    N        0.57974    0.89780    0.55163    1.000
    N3430    N        0.57400    0.75436    0.69638    1.000
    N3431    N        0.53810    0.85672    0.67665    1.000
    N3432    N        0.57686    0.82371    0.72662    1.000
    Si3433   Si       0.57714    0.84492    0.68957    1.000
    Si3434   Si       0.56297    0.95757    0.64367    1.000
    N3435    N        0.53995    0.99073    0.62928    1.000
    N3436    N        0.55890    0.89411    0.74077    1.000
    Si3437   Si       0.54130    0.88811    0.64538    1.000
    N3438    N        0.55361    0.92205    0.66884    1.000
    Si3439   Si       0.57689    0.91012    0.70372    1.000
    Si3440   Si       0.55418    0.86082    0.82296    1.000
    Si3441   Si       0.55502    0.85116    0.75459    1.000
    N3442    N        0.54484    0.77121    0.82839    1.000
    Si3443   Si       0.52069    0.79817    0.85670    1.000
    N3444    N        0.52155    0.83266    0.83025    1.000
    N3445    N        0.57843    0.84563    0.78985    1.000
    N3446    N        0.53683    0.89783    0.80657    1.000
    Si3447   Si       0.54318    0.99328    0.78266    1.000
    Si3448   Si       0.53302    0.91523    0.76686    1.000
    N3449    N        0.52734    0.95740    0.76752    1.000
    N3450    N        0.53261    0.93388    0.86829    1.000
    N3451    N        0.55107    0.80257    0.88759    1.000
    Si3452   Si       0.53495    0.85600    0.94916    1.000
    Si3453   Si       0.56658    0.76687    0.90717    1.000
    N3454    N        0.57633    0.85248    0.93397    1.000
    N3455    N        0.53597    0.88306    0.98280    1.000
    Si3456   Si       0.57784    0.78965    0.98084    1.000
    N3457    N        0.54871    0.81872    0.99112    1.000
    N3458    N        0.57385    0.99516    0.88339    1.000
    N3459    N        0.53591    0.95999    0.92926    1.000
    Si3460   Si       0.56253    0.95585    0.89178    1.000
    Si3461   Si       0.55228    0.96824    0.96722    1.000
    N3462    N        0.59982    0.06415    0.05317    1.000
    N3463    N        0.61447    0.12525    0.08108    1.000
    N3464    N        0.62235    0.02126    0.00688    1.000
    Si3465   Si       0.60667    0.02080    0.04669    1.000
    Si3466   Si       0.59324    0.10675    0.11559    1.000
    N3467    N        0.62096    0.10352    0.01075    1.000
    Si3468   Si       0.63404    0.09486    0.05547    1.000
    Si3469   Si       0.59347    0.16038    0.06747    1.000
    N3470    N        0.60659    0.19679    0.08728    1.000
    N3471    N        0.60807    0.16830    0.02807    1.000
    N3472    N        0.62141    0.25309    0.03948    1.000
    Si3473   Si       0.59403    0.13815    0.00021    1.000
    N3474    N        0.63501    0.12730    0.19818    1.000
    Si3475   Si       0.59876    0.04248    0.15797    1.000
    N3476    N        0.61598    0.07500    0.13452    1.000
    N3477    N        0.60096    0.05711    0.19873    1.000
    Si3478   Si       0.60474    0.03024    0.23742    1.000
    Si3479   Si       0.61493    0.09441    0.21823    1.000
    N3480    N        0.57967    0.10582    0.24031    1.000
    N3481    N        0.63083    0.20541    0.24514    1.000
    N3482    N        0.63458    0.19029    0.17001    1.000
    N3483    N        0.59158    0.24970    0.12626    1.000
    Si3484   Si       0.62830    0.14819    0.15964    1.000
    Si3485   Si       0.62095    0.21389    0.20383    1.000
    N3486    N        0.58933    0.13799    0.14612    1.000
    N3487    N        0.60012    0.08065    0.34233    1.000
    N3488    N        0.61304    0.05119    0.27439    1.000
    Si3489   Si       0.59180    0.05036    0.31204    1.000
    Si3490   Si       0.61671    0.11806    0.32661    1.000
    N3491    N        0.58028    0.13439    0.30679    1.000
    N3492    N        0.59401    0.20441    0.31160    1.000
    Si3493   Si       0.59341    0.21213    0.26718    1.000
    N3494    N        0.62724    0.15154    0.35244    1.000
    Si3495   Si       0.62951    0.19095    0.33502    1.000
    N3496    N        0.58842    0.25447    0.26365    1.000
    N3497    N        0.60760    0.05305    0.46633    1.000
    N3498    N        0.60761    0.05080    0.39824    1.000
    Si3499   Si       0.60180    0.02609    0.43273    1.000
    N3500    N        0.62346    0.12698    0.41770    1.000
    Si3501   Si       0.58228    0.12441    0.42295    1.000
    Si3502   Si       0.57792    0.07823    0.48398    1.000
    N3503    N        0.60193    0.20473    0.47482    1.000
    Si3504   Si       0.58810    0.24378    0.46093    1.000
    N3505    N        0.61971    0.20750    0.37437    1.000
    Si3506   Si       0.58226    0.22786    0.37965    1.000
    Si3507   Si       0.61870    0.16492    0.39372    1.000
    N3508    N        0.60471    0.06831    0.57983    1.000
    Si3509   Si       0.61061    0.04047    0.61194    1.000
    N3510    N        0.63047    0.02437    0.53687    1.000
    Si3511   Si       0.63360    0.06658    0.54694    1.000
    N3512    N        0.63661    0.09071    0.51114    1.000
    N3513    N        0.60148    0.24271    0.53179    1.000
    N3514    N        0.59869    0.22925    0.60389    1.000
    N3515    N        0.62089    0.16077    0.59462    1.000
    Si3516   Si       0.61984    0.24585    0.57030    1.000
    N3517    N        0.61917    0.16662    0.52262    1.000
    Si3518   Si       0.58759    0.18848    0.59498    1.000
    Si3519   Si       0.58585    0.19611    0.51679    1.000
    N3520    N        0.58766    0.01586    0.70778    1.000
    Si3521   Si       0.58949    0.05364    0.68585    1.000
    N3522    N        0.62031    0.12220    0.65298    1.000
    N3523    N        0.62783    0.07060    0.70106    1.000
    N3524    N        0.57929    0.04391    0.64424    1.000
    N3525    N        0.61652    0.23611    0.67823    1.000
    N3526    N        0.58599    0.17265    0.68920    1.000
    Si3527   Si       0.58239    0.14480    0.65763    1.000
    N3528    N        0.58649    0.20248    0.74251    1.000
    Si3529   Si       0.57976    0.21606    0.69939    1.000
    Si3530   Si       0.60735    0.16675    0.72689    1.000
    Si3531   Si       0.58979    0.24951    0.64194    1.000
    N3532    N        0.60225    0.11095    0.81280    1.000
    Si3533   Si       0.61305    0.08702    0.84662    1.000
    N3534    N        0.59380    0.05031    0.86062    1.000
    N3535    N        0.59252    0.06410    0.75752    1.000
    Si3536   Si       0.62624    0.12445    0.77868    1.000
    Si3537   Si       0.57650    0.01316    0.84349    1.000
    Si3538   Si       0.63441    0.06336    0.74477    1.000
    Si3539   Si       0.58601    0.19803    0.83613    1.000
    N3540    N        0.62503    0.21495    0.82313    1.000
    N3541    N        0.59704    0.17343    0.87045    1.000
    N3542    N        0.59703    0.13100    0.74648    1.000
    N3543    N        0.60930    0.11215    0.88169    1.000
    Si3544   Si       0.58927    0.03306    0.90337    1.000
    N3545    N        0.59993    0.03483    0.94819    1.000
    Si3546   Si       0.61331    0.06143    0.98871    1.000
    N3547    N        0.63249    0.02135    0.89875    1.000
    Si3548   Si       0.63476    0.15130    0.88061    1.000
    N3549    N        0.59424    0.16023    0.96135    1.000
    Si3550   Si       0.62807    0.18840    0.95027    1.000
    N3551    N        0.63899    0.21016    0.98769    1.000
    Si3552   Si       0.58225    0.24646    0.94098    1.000
    N3553    N        0.61768    0.22746    0.92834    1.000
    Si3554   Si       0.62789    0.24870    0.99589    1.000
    N3555    N        0.61227    0.29866    0.08679    1.000
    N3556    N        0.61975    0.32639    0.01877    1.000
    Si3557   Si       0.60382    0.29316    0.04531    1.000
    Si3558   Si       0.59924    0.33606    0.10923    1.000
    Si3559   Si       0.59794    0.36076    0.00306    1.000
    Si3560   Si       0.62869    0.27163    0.11508    1.000
    N3561    N        0.61036    0.45445    0.01762    1.000
    N3562    N        0.62243    0.41037    0.07092    1.000
    Si3563   Si       0.63177    0.39970    0.11054    1.000
    Si3564   Si       0.57852    0.39847    0.06925    1.000
    Si3565   Si       0.57749    0.48237    0.01845    1.000
    N3566    N        0.58116    0.31199    0.22183    1.000
    Si3567   Si       0.60666    0.27842    0.23189    1.000
    Si3568   Si       0.59026    0.35371    0.21723    1.000
    N3569    N        0.62847    0.36595    0.23213    1.000
    N3570    N        0.62344    0.25668    0.19528    1.000
    N3571    N        0.62066    0.42480    0.19460    1.000
    N3572    N        0.59808    0.42052    0.13078    1.000
    Si3573   Si       0.58389    0.41490    0.17184    1.000
    Si3574   Si       0.63032    0.40869    0.23422    1.000
    Si3575   Si       0.58624    0.33860    0.33699    1.000
    Si3576   Si       0.58544    0.26709    0.30862    1.000
    Si3577   Si       0.62839    0.28158    0.35674    1.000
    N3578    N        0.62982    0.27797    0.31278    1.000
    N3579    N        0.59981    0.37895    0.31816    1.000
    N3580    N        0.59006    0.26192    0.35427    1.000
    N3581    N        0.62009    0.32461    0.36219    1.000
    Si3582   Si       0.61343    0.44738    0.29494    1.000
    N3583    N        0.59953    0.42319    0.26220    1.000
    N3584    N        0.57999    0.46614    0.31545    1.000
    N3585    N        0.63293    0.48467    0.27818    1.000
    Si3586   Si       0.57787    0.50411    0.33503    1.000
    Si3587   Si       0.63077    0.30956    0.45579    1.000
    N3588    N        0.60560    0.33113    0.42886    1.000
    N3589    N        0.61502    0.27458    0.47339    1.000
    Si3590   Si       0.62816    0.35144    0.39845    1.000
    Si3591   Si       0.62799    0.38080    0.48731    1.000
    N3592    N        0.58792    0.38386    0.47205    1.000
    N3593    N        0.61724    0.39078    0.38158    1.000
    Si3594   Si       0.58010    0.40697    0.39607    1.000
    N3595    N        0.59624    0.50706    0.41750    1.000
    Si3596   Si       0.61870    0.46720    0.42063    1.000
    N3597    N        0.58921    0.43682    0.42545    1.000
    Si3598   Si       0.60644    0.31428    0.59868    1.000
    N3599    N        0.59352    0.35028    0.57598    1.000
    N3600    N        0.63115    0.28674    0.57723    1.000
    Si3601   Si       0.61354    0.38864    0.56725    1.000
    N3602    N        0.60054    0.49159    0.59566    1.000
    N3603    N        0.62412    0.47830    0.52408    1.000
    Si3604   Si       0.60662    0.43937    0.52789    1.000
    N3605    N        0.59419    0.42784    0.57097    1.000
    N3606    N        0.62565    0.39587    0.52698    1.000
    Si3607   Si       0.62367    0.50407    0.56195    1.000
    N3608    N        0.58239    0.28915    0.62902    1.000
    Si3609   Si       0.62583    0.34016    0.72599    1.000
    Si3610   Si       0.61338    0.26930    0.70958    1.000
    N3611    N        0.62986    0.33455    0.62767    1.000
    N3612    N        0.61131    0.31147    0.69386    1.000
    Si3613   Si       0.60473    0.34150    0.66355    1.000
    N3614    N        0.61886    0.37360    0.68742    1.000
    N3615    N        0.59898    0.36668    0.74873    1.000
    N3616    N        0.62652    0.49163    0.71783    1.000
    Si3617   Si       0.59585    0.39799    0.71425    1.000
    N3618    N        0.62169    0.42913    0.73026    1.000
    N3619    N        0.61027    0.27422    0.86112    1.000
    Si3620   Si       0.59139    0.32857    0.77863    1.000
    N3621    N        0.62441    0.31190    0.75890    1.000
    N3622    N        0.58503    0.35528    0.81089    1.000
    Si3623   Si       0.59220    0.39036    0.78644    1.000
    Si3624   Si       0.63065    0.42150    0.84551    1.000
    Si3625   Si       0.61132    0.49395    0.83427    1.000
    N3626    N        0.60285    0.47352    0.78404    1.000
    N3627    N        0.59293    0.40030    0.86379    1.000
    N3628    N        0.63053    0.40982    0.80022    1.000
    Si3629   Si       0.63162    0.44312    0.77067    1.000
    Si3630   Si       0.59635    0.49827    0.74778    1.000
    N3631    N        0.57596    0.46524    0.83925    1.000
    Si3632   Si       0.62376    0.30753    0.88176    1.000
    N3633    N        0.59361    0.33875    0.88385    1.000
    N3634    N        0.59199    0.26629    0.97958    1.000
    Si3635   Si       0.59546    0.37870    0.90317    1.000
    N3636    N        0.60729    0.50591    0.87807    1.000
    N3637    N        0.61663    0.38971    0.98108    1.000
    N3638    N        0.63026    0.44593    0.94873    1.000
    Si3639   Si       0.60223    0.43153    0.98096    1.000
    N3640    N        0.62488    0.53414    0.11064    1.000
    N3641    N        0.60626    0.62065    0.08307    1.000
    Si3642   Si       0.62812    0.51826    0.07076    1.000
    N3643    N        0.58912    0.50995    0.05206    1.000
    N3644    N        0.62304    0.57328    0.99267    1.000
    N3645    N        0.59678    0.67033    0.04066    1.000
    Si3646   Si       0.61301    0.74245    0.01076    1.000
    Si3647   Si       0.62542    0.67301    0.00933    1.000
    N3648    N        0.59106    0.70632    0.10773    1.000
    N3649    N        0.60570    0.73780    0.05341    1.000
    Si3650   Si       0.58119    0.69998    0.06685    1.000
    Si3651   Si       0.57871    0.63437    0.05578    1.000
    Si3652   Si       0.58028    0.76031    0.08100    1.000
    N3653    N        0.59318    0.52179    0.16953    1.000
    Si3654   Si       0.58733    0.51989    0.12710    1.000
    Si3655   Si       0.59023    0.62141    0.20861    1.000
    N3656    N        0.58512    0.53258    0.23611    1.000
    N3657    N        0.61930    0.59869    0.14161    1.000
    N3658    N        0.63112    0.60408    0.21286    1.000
    Si3659   Si       0.62446    0.51564    0.24503    1.000
    Si3660   Si       0.57801    0.58982    0.14000    1.000
    Si3661   Si       0.62453    0.69964    0.13721    1.000
    N3662    N        0.59599    0.70479    0.16885    1.000
    Si3663   Si       0.58068    0.68417    0.20478    1.000
    N3664    N        0.60916    0.66113    0.22509    1.000
    N3665    N        0.60281    0.56838    0.29160    1.000
    N3666    N        0.61466    0.52657    0.34611    1.000
    Si3667   Si       0.59605    0.61164    0.28616    1.000
    N3668    N        0.59672    0.69358    0.29882    1.000
    Si3669   Si       0.60677    0.68585    0.33859    1.000
    N3670    N        0.62712    0.71628    0.36357    1.000
    N3671    N        0.63161    0.65148    0.34848    1.000
    N3672    N        0.58546    0.61145    0.38209    1.000
    N3673    N        0.61704    0.54257    0.48481    1.000
    Si3674   Si       0.60922    0.54097    0.44350    1.000
    Si3675   Si       0.62698    0.51647    0.38622    1.000
    Si3676   Si       0.61138    0.70912    0.40242    1.000
    Si3677   Si       0.62424    0.63538    0.38729    1.000
    N3678    N        0.60977    0.66701    0.41524    1.000
    Si3679   Si       0.58144    0.65802    0.44761    1.000
    N3680    N        0.59935    0.65157    0.48509    1.000
    N3681    N        0.60283    0.54018    0.55103    1.000
    N3682    N        0.60743    0.60513    0.59465    1.000
    Si3683   Si       0.59027    0.56754    0.58532    1.000
    Si3684   Si       0.58335    0.54551    0.51155    1.000
    Si3685   Si       0.61241    0.63907    0.57006    1.000
    N3686    N        0.61984    0.67265    0.59758    1.000
    N3687    N        0.60937    0.73595    0.57842    1.000
    Si3688   Si       0.60128    0.73167    0.53517    1.000
    Si3689   Si       0.58995    0.70415    0.60132    1.000
    N3690    N        0.63118    0.71640    0.51057    1.000
    N3691    N        0.60136    0.55332    0.62451    1.000
    Si3692   Si       0.60241    0.59531    0.63789    1.000
    N3693    N        0.62446    0.61408    0.66938    1.000
    Si3694   Si       0.61625    0.57152    0.73211    1.000
    Si3695   Si       0.60358    0.51242    0.63334    1.000
    N3696    N        0.58397    0.59608    0.71865    1.000
    Si3697   Si       0.59739    0.63076    0.69750    1.000
    N3698    N        0.63026    0.71757    0.69444    1.000
    N3699    N        0.62144    0.65217    0.72660    1.000
    Si3700   Si       0.60139    0.73513    0.66826    1.000
    Si3701   Si       0.62059    0.69469    0.73013    1.000
    N3702    N        0.58060    0.70617    0.64520    1.000
    Si3703   Si       0.60749    0.56075    0.79518    1.000
    N3704    N        0.61439    0.60929    0.85004    1.000
    N3705    N        0.59776    0.54013    0.75826    1.000
    N3706    N        0.62710    0.59174    0.76824    1.000
    N3707    N        0.62825    0.53321    0.82212    1.000
    Si3708   Si       0.62318    0.64980    0.83504    1.000
    N3709    N        0.61143    0.65510    0.79474    1.000
    N3710    N        0.60542    0.72753    0.81240    1.000
    N3711    N        0.59684    0.67648    0.85382    1.000
    Si3712   Si       0.58642    0.69320    0.79487    1.000
    N3713    N        0.58189    0.69986    0.75080    1.000
    Si3714   Si       0.58559    0.76027    0.83718    1.000
    Si3715   Si       0.63471    0.74684    0.78479    1.000
    Si3716   Si       0.59186    0.60630    0.97981    1.000
    Si3717   Si       0.62194    0.59190    0.89151    1.000
    Si3718   Si       0.60253    0.54121    0.97193    1.000
    N3719    N        0.62972    0.52039    0.94602    1.000
    N3720    N        0.58018    0.57686    0.88964    1.000
    N3721    N        0.59007    0.74498    0.87696    1.000
    Si3722   Si       0.63733    0.70921    0.94607    1.000
    N3723    N        0.60605    0.69376    0.91979    1.000
    Si3724   Si       0.61287    0.70709    0.87761    1.000
    N3725    N        0.61626    0.70806    0.98479    1.000
    N3726    N        0.62467    0.63901    0.98174    1.000
    N3727    N        0.59915    0.85830    0.00524    1.000
    Si3728   Si       0.60673    0.87148    0.10645    1.000
    N3729    N        0.58828    0.83220    0.10479    1.000
    Si3730   Si       0.63236    0.85651    0.03361    1.000
    N3731    N        0.61985    0.78674    0.99171    1.000
    N3732    N        0.62278    0.88246    0.06801    1.000
    N3733    N        0.60248    0.93790    0.02690    1.000
    N3734    N        0.61269    0.95001    0.09554    1.000
    Si3735   Si       0.62786    0.92836    0.06066    1.000
    N3736    N        0.58817    0.76632    0.12293    1.000
    N3737    N        0.61020    0.82302    0.17067    1.000
    Si3738   Si       0.61049    0.80207    0.13015    1.000
    Si3739   Si       0.60235    0.81798    0.21412    1.000
    N3740    N        0.59025    0.77996    0.23166    1.000
    N3741    N        0.61286    0.88731    0.19852    1.000
    Si3742   Si       0.62405    0.97948    0.18935    1.000
    Si3743   Si       0.62696    0.92466    0.21393    1.000
    N3744    N        0.61834    0.00284    0.15162    1.000
    N3745    N        0.59356    0.95397    0.20708    1.000
    N3746    N        0.61434    0.83454    0.34561    1.000
    Si3747   Si       0.59114    0.77834    0.27608    1.000
    N3748    N        0.63155    0.77087    0.28611    1.000
    Si3749   Si       0.61035    0.87700    0.33455    1.000
    Si3750   Si       0.57629    0.81879    0.33503    1.000
    N3751    N        0.57843    0.81826    0.29068    1.000
    Si3752   Si       0.61113    0.98007    0.32754    1.000
    N3753    N        0.59497    0.94461    0.30367    1.000
    N3754    N        0.59230    0.97548    0.36688    1.000
    Si3755   Si       0.63555    0.93033    0.29184    1.000
    N3756    N        0.61491    0.79107    0.40384    1.000
    N3757    N        0.59977    0.83119    0.47580    1.000
    Si3758   Si       0.62660    0.77017    0.43951    1.000
    Si3759   Si       0.58288    0.86878    0.46023    1.000
    Si3760   Si       0.58123    0.79223    0.48924    1.000
    N3761    N        0.58520    0.76213    0.45511    1.000
    N3762    N        0.61653    0.88496    0.43478    1.000
    Si3763   Si       0.61347    0.96055    0.40087    1.000
    N3764    N        0.61387    0.89678    0.37291    1.000
    Si3765   Si       0.58354    0.90058    0.40423    1.000
    N3766    N        0.62803    0.99108    0.42858    1.000
    N3767    N        0.57845    0.94055    0.41773    1.000
    N3768    N        0.62403    0.90566    0.49487    1.000
    N3769    N        0.59784    0.77646    0.52529    1.000
    Si3770   Si       0.60435    0.81205    0.55094    1.000
    N3771    N        0.60698    0.81413    0.59400    1.000
    Si3772   Si       0.59112    0.92324    0.51634    1.000
    Si3773   Si       0.60956    0.98922    0.55350    1.000
    N3774    N        0.62528    0.92284    0.61092    1.000
    N3775    N        0.61465    0.99831    0.59536    1.000
    Si3776   Si       0.58757    0.90701    0.59289    1.000
    N3777    N        0.62034    0.95035    0.53684    1.000
    N3778    N        0.63245    0.78320    0.70635    1.000
    Si3779   Si       0.62814    0.79556    0.66569    1.000
    N3780    N        0.59057    0.81729    0.65879    1.000
    Si3781   Si       0.59088    0.78096    0.72389    1.000
    N3782    N        0.60387    0.87823    0.69137    1.000
    N3783    N        0.62370    0.76079    0.64094    1.000
    N3784    N        0.60219    0.96977    0.65470    1.000
    N3785    N        0.60108    0.94136    0.71962    1.000
    Si3786   Si       0.61078    0.98028    0.69856    1.000
    Si3787   Si       0.62940    0.96477    0.62214    1.000
    N3788    N        0.61024    0.79499    0.82775    1.000
    N3789    N        0.60808    0.77411    0.76283    1.000
    Si3790   Si       0.60757    0.81353    0.78815    1.000
    N3791    N        0.57777    0.86311    0.86133    1.000
    Si3792   Si       0.62758    0.99451    0.78689    1.000
    N3793    N        0.58603    0.99760    0.77476    1.000
    N3794    N        0.61910    0.91791    0.83266    1.000
    N3795    N        0.61876    0.00058    0.82923    1.000
    Si3796   Si       0.60384    0.89703    0.86493    1.000
    Si3797   Si       0.63157    0.79272    0.94836    1.000
    Si3798   Si       0.60801    0.86447    0.96154    1.000
    N3799    N        0.62332    0.82012    0.89084    1.000
    N3800    N        0.58928    0.78564    0.93813    1.000
    Si3801   Si       0.58199    0.83436    0.89383    1.000
    N3802    N        0.63466    0.88267    0.89368    1.000
    N3803    N        0.59866    0.96893    0.96561    1.000
    N3804    N        0.61817    0.90480    0.95857    1.000
    N3805    N        0.59507    0.92892    0.89390    1.000
    Si3806   Si       0.62288    0.00456    0.96650    1.000
    Si3807   Si       0.62064    0.93575    0.98630    1.000
    Si3808   Si       0.62979    0.91728    0.91744    1.000
    N3809    N        0.66513    0.07422    0.08707    1.000
    Si3810   Si       0.67381    0.03188    0.07888    1.000
    N3811    N        0.67465    0.11163    0.03764    1.000
    N3812    N        0.63599    0.01145    0.07941    1.000
    N3813    N        0.65807    0.24817    0.09371    1.000
    N3814    N        0.66576    0.19335    0.04985    1.000
    Si3815   Si       0.64960    0.17658    0.01340    1.000
    Si3816   Si       0.63642    0.22250    0.06562    1.000
    N3817    N        0.65142    0.07587    0.23134    1.000
    N3818    N        0.68210    0.06361    0.15733    1.000
    Si3819   Si       0.68033    0.06925    0.20104    1.000
    Si3820   Si       0.65773    0.08579    0.12874    1.000
    Si3821   Si       0.67440    0.13645    0.21505    1.000
    N3822    N        0.66306    0.13066    0.13706    1.000
    N3823    N        0.68882    0.23673    0.17830    1.000
    Si3824   Si       0.67497    0.19912    0.16723    1.000
    N3825    N        0.69169    0.17115    0.19735    1.000
    Si3826   Si       0.65574    0.06771    0.27316    1.000
    N3827    N        0.67033    0.02567    0.28335    1.000
    Si3828   Si       0.68436    0.12236    0.29062    1.000
    N3829    N        0.66533    0.08775    0.36708    1.000
    N3830    N        0.64569    0.10318    0.29929    1.000
    N3831    N        0.63973    0.01834    0.34343    1.000
    N3832    N        0.67764    0.14836    0.25785    1.000
    N3833    N        0.66416    0.19173    0.30852    1.000
    Si3834   Si       0.66617    0.19050    0.26335    1.000
    N3835    N        0.68877    0.19410    0.37210    1.000
    Si3836   Si       0.64498    0.05106    0.37522    1.000
    N3837    N        0.67101    0.08976    0.44436    1.000
    Si3838   Si       0.64654    0.06796    0.47466    1.000
    N3839    N        0.67720    0.04005    0.48915    1.000
    N3840    N        0.67599    0.03325    0.40481    1.000
    Si3841   Si       0.66455    0.13279    0.43193    1.000
    N3842    N        0.66197    0.22273    0.48763    1.000
    Si3843   Si       0.64142    0.18952    0.46996    1.000
    N3844    N        0.64413    0.18467    0.42604    1.000
    N3845    N        0.68966    0.22643    0.42536    1.000
    Si3846   Si       0.65676    0.21816    0.39614    1.000
    N3847    N        0.66630    0.14849    0.47528    1.000
    N3848    N        0.67095    0.06938    0.56613    1.000
    N3849    N        0.67810    0.12214    0.61570    1.000
    Si3850   Si       0.68337    0.10901    0.57422    1.000
    Si3851   Si       0.67081    0.01493    0.52262    1.000
    Si3852   Si       0.64570    0.13433    0.51108    1.000
    N3853    N        0.66656    0.13833    0.54891    1.000
    N3854    N        0.65325    0.21585    0.56549    1.000
    Si3855   Si       0.64382    0.17341    0.55924    1.000
    Si3856   Si       0.63825    0.25491    0.50724    1.000
    N3857    N        0.68792    0.08923    0.67501    1.000
    N3858    N        0.64457    0.05199    0.63714    1.000
    Si3859   Si       0.64505    0.08687    0.66443    1.000
    Si3860   Si       0.67772    0.02459    0.64314    1.000
    N3861    N        0.65118    0.25835    0.73362    1.000
    Si3862   Si       0.64814    0.20552    0.68204    1.000
    N3863    N        0.65860    0.18296    0.64589    1.000
    Si3864   Si       0.64580    0.14707    0.62755    1.000
    N3865    N        0.64719    0.17917    0.71566    1.000
    Si3866   Si       0.68893    0.23799    0.72431    1.000
    N3867    N        0.68963    0.22203    0.68259    1.000
    N3868    N        0.65621    0.09687    0.76630    1.000
    N3869    N        0.65083    0.06420    0.83962    1.000
    N3870    N        0.64910    0.02462    0.76327    1.000
    N3871    N        0.68100    0.01479    0.86408    1.000
    Si3872   Si       0.63778    0.02520    0.85750    1.000
    Si3873   Si       0.69173    0.02604    0.76348    1.000
    N3874    N        0.66044    0.15386    0.84703    1.000
    Si3875   Si       0.65724    0.18494    0.81715    1.000
    N3876    N        0.64988    0.16191    0.78058    1.000
    Si3877   Si       0.63966    0.25204    0.83921    1.000
    Si3878   Si       0.67657    0.17043    0.74734    1.000
    N3879    N        0.69743    0.20365    0.82485    1.000
    Si3880   Si       0.67549    0.01184    0.90910    1.000
    N3881    N        0.65247    0.06890    0.97313    1.000
    Si3882   Si       0.66417    0.10665    0.99531    1.000
    N3883    N        0.66007    0.14783    0.98260    1.000
    N3884    N        0.66872    0.24267    0.87017    1.000
    N3885    N        0.68367    0.22784    0.93626    1.000
    N3886    N        0.65154    0.17209    0.91601    1.000
    Si3887   Si       0.65192    0.24698    0.91101    1.000
    Si3888   Si       0.69230    0.18694    0.92485    1.000
    N3889    N        0.68963    0.31330    0.09478    1.000
    N3890    N        0.69272    0.33593    0.02069    1.000
    Si3891   Si       0.65918    0.31734    0.00109    1.000
    Si3892   Si       0.69355    0.26990    0.09277    1.000
    Si3893   Si       0.67264    0.48420    0.11157    1.000
    N3894    N        0.67823    0.43551    0.03154    1.000
    N3895    N        0.64602    0.47899    0.07795    1.000
    Si3896   Si       0.63988    0.44534    0.04973    1.000
    N3897    N        0.63487    0.35677    0.11986    1.000
    Si3898   Si       0.66766    0.33038    0.12928    1.000
    Si3899   Si       0.66278    0.27336    0.18316    1.000
    N3900    N        0.65483    0.29094    0.14433    1.000
    N3901    N        0.69194    0.35271    0.22726    1.000
    Si3902   Si       0.65822    0.33877    0.24815    1.000
    N3903    N        0.68749    0.44747    0.19351    1.000
    Si3904   Si       0.67145    0.46173    0.23113    1.000
    N3905    N        0.64093    0.49104    0.21230    1.000
    N3906    N        0.65079    0.48090    0.14843    1.000
    N3907    N        0.66389    0.41345    0.13679    1.000
    Si3908   Si       0.65340    0.44199    0.16858    1.000
    N3909    N        0.66773    0.33222    0.28908    1.000
    Si3910   Si       0.66130    0.28972    0.28699    1.000
    N3911    N        0.67483    0.37528    0.34462    1.000
    N3912    N        0.69171    0.26470    0.30470    1.000
    N3913    N        0.64691    0.29504    0.24418    1.000
    Si3914   Si       0.67126    0.49048    0.29555    1.000
    Si3915   Si       0.66679    0.45404    0.35721    1.000
    N3916    N        0.64012    0.43440    0.32768    1.000
    N3917    N        0.66919    0.42104    0.24890    1.000
    Si3918   Si       0.63546    0.39309    0.33895    1.000
    Si3919   Si       0.68752    0.27055    0.41589    1.000
    N3920    N        0.64480    0.34252    0.47973    1.000
    N3921    N        0.67021    0.29431    0.44513    1.000
    Si3922   Si       0.67832    0.36086    0.45416    1.000
    N3923    N        0.66882    0.36094    0.41094    1.000
    N3924    N        0.65920    0.26182    0.38255    1.000
    Si3925   Si       0.69167    0.30128    0.48502    1.000
    Si3926   Si       0.69243    0.38449    0.38221    1.000
    N3927    N        0.64207    0.47514    0.38524    1.000
    N3928    N        0.64239    0.47021    0.45577    1.000
    N3929    N        0.69200    0.42681    0.37826    1.000
    Si3930   Si       0.67451    0.44192    0.46532    1.000
    N3931    N        0.66421    0.40086    0.46743    1.000
    Si3932   Si       0.67072    0.29554    0.56374    1.000
    N3933    N        0.66916    0.28576    0.52010    1.000
    N3934    N        0.68269    0.33400    0.58367    1.000
    Si3935   Si       0.66341    0.35773    0.61374    1.000
    N3936    N        0.64690    0.39400    0.59575    1.000
    Si3937   Si       0.68460    0.41725    0.60020    1.000
    N3938    N        0.68224    0.45972    0.50420    1.000
    Si3939   Si       0.67520    0.49606    0.61874    1.000
    Si3940   Si       0.65196    0.49053    0.49445    1.000
    N3941    N        0.67712    0.36451    0.65679    1.000
    N3942    N        0.66601    0.35942    0.72579    1.000
    Si3943   Si       0.66160    0.38341    0.69115    1.000
    N3944    N        0.68650    0.45236    0.62770    1.000
    Si3945   Si       0.65799    0.45500    0.71577    1.000
    N3946    N        0.68430    0.48574    0.69310    1.000
    N3947    N        0.67690    0.42420    0.69122    1.000
    Si3948   Si       0.65612    0.28491    0.76710    1.000
    N3949    N        0.65703    0.27912    0.81068    1.000
    Si3950   Si       0.67804    0.31463    0.82407    1.000
    N3951    N        0.65274    0.33015    0.85761    1.000
    N3952    N        0.67574    0.34798    0.79651    1.000
    Si3953   Si       0.69337    0.34400    0.75717    1.000
    Si3954   Si       0.66814    0.38901    0.80965    1.000
    N3955    N        0.67104    0.45450    0.75824    1.000
    N3956    N        0.66746    0.39750    0.85240    1.000
    N3957    N        0.64398    0.46155    0.84226    1.000
    Si3958   Si       0.67637    0.48004    0.86533    1.000
    Si3959   Si       0.66175    0.36543    0.88116    1.000
    N3960    N        0.66113    0.33873    0.96286    1.000
    Si3961   Si       0.67877    0.31617    0.93151    1.000
    N3962    N        0.64740    0.29024    0.91430    1.000
    N3963    N        0.66190    0.27699    0.98863    1.000
    Si3964   Si       0.64977    0.38079    0.95517    1.000
    N3965    N        0.63681    0.37912    0.91340    1.000
    N3966    N        0.69308    0.34565    0.90499    1.000
    Si3967   Si       0.65106    0.48239    0.94645    1.000
    N3968    N        0.68498    0.39755    0.97430    1.000
    Si3969   Si       0.69245    0.43962    0.98937    1.000
    N3970    N        0.66776    0.49017    0.90681    1.000
    N3971    N        0.67758    0.47899    0.97870    1.000
    N3972    N        0.65657    0.54202    0.04866    1.000
    N3973    N        0.68096    0.60532    0.03808    1.000
    Si3974   Si       0.65955    0.57181    0.01804    1.000
    N3975    N        0.66861    0.59323    0.10582    1.000
    Si3976   Si       0.63770    0.62396    0.11199    1.000
    Si3977   Si       0.68193    0.71405    0.03169    1.000
    N3978    N        0.66770    0.67490    0.02237    1.000
    N3979    N        0.65843    0.74742    0.01803    1.000
    Si3980   Si       0.67865    0.69734    0.10993    1.000
    N3981    N        0.68461    0.72101    0.07481    1.000
    Si3982   Si       0.69277    0.63996    0.01347    1.000
    N3983    N        0.64863    0.66478    0.12055    1.000
    Si3984   Si       0.64820    0.56514    0.13085    1.000
    Si3985   Si       0.66193    0.57495    0.20583    1.000
    N3986    N        0.65743    0.54981    0.17044    1.000
    N3987    N        0.65395    0.54672    0.23961    1.000
    Si3988   Si       0.63688    0.51157    0.17382    1.000
    Si3989   Si       0.64412    0.63785    0.23764    1.000
    N3990    N        0.65769    0.72616    0.13666    1.000
    N3991    N        0.68265    0.65334    0.22622    1.000
    N3992    N        0.67447    0.73356    0.24248    1.000
    N3993    N        0.67177    0.53510    0.30207    1.000
    N3994    N        0.65439    0.58831    0.32805    1.000
    Si3995   Si       0.69044    0.53629    0.26082    1.000
    Si3996   Si       0.65458    0.63007    0.31732    1.000
    N3997    N        0.63662    0.62714    0.27890    1.000
    Si3998   Si       0.63295    0.55387    0.31631    1.000
    Si3999   Si       0.66161    0.73957    0.35269    1.000
    N4000    N        0.67423    0.72460    0.31480    1.000
    Si4001   Si       0.66787    0.75068    0.28219    1.000
    N4002    N        0.69176    0.65344    0.31846    1.000
    N4003    N        0.69312    0.55353    0.37018    1.000
    Si4004   Si       0.67369    0.57481    0.40469    1.000
    N4005    N        0.66367    0.61678    0.39749    1.000
    N4006    N        0.65675    0.59903    0.48644    1.000
    N4007    N        0.67616    0.52831    0.49277    1.000
    N4008    N        0.63871    0.55033    0.41244    1.000
    N4009    N        0.69289    0.71933    0.46497    1.000
    N4010    N        0.67447    0.66071    0.48306    1.000
    N4011    N        0.69211    0.73930    0.38467    1.000
    N4012    N        0.63911    0.73060    0.42728    1.000
    N4013    N        0.69124    0.68026    0.41434    1.000
    Si4014   Si       0.67900    0.72112    0.42145    1.000
    Si4015   Si       0.66884    0.70101    0.49982    1.000
    Si4016   Si       0.63927    0.63823    0.49628    1.000
    N4017    N        0.66869    0.56683    0.54794    1.000
    Si4018   Si       0.65203    0.56047    0.50638    1.000
    Si4019   Si       0.68983    0.53995    0.57335    1.000
    N4020    N        0.66394    0.50472    0.57718    1.000
    N4021    N        0.67034    0.72123    0.61238    1.000
    Si4022   Si       0.68244    0.65549    0.54953    1.000
    Si4023   Si       0.65756    0.67780    0.61670    1.000
    N4024    N        0.68497    0.65146    0.59386    1.000
    N4025    N        0.64129    0.64478    0.53929    1.000
    Si4026   Si       0.64149    0.75399    0.60122    1.000
    N4027    N        0.69115    0.69551    0.53581    1.000
    N4028    N        0.64357    0.55334    0.70535    1.000
    N4029    N        0.68678    0.59987    0.64212    1.000
    Si4030   Si       0.65038    0.51337    0.68955    1.000
    Si4031   Si       0.66755    0.62505    0.67229    1.000
    N4032    N        0.68154    0.61197    0.71139    1.000
    Si4033   Si       0.68207    0.57017    0.71950    1.000
    N4034    N        0.64394    0.50661    0.64741    1.000
    N4035    N        0.66755    0.66503    0.65832    1.000
    Si4036   Si       0.65709    0.74751    0.71441    1.000
    N4037    N        0.69028    0.74043    0.68740    1.000
    Si4038   Si       0.69210    0.69628    0.67797    1.000
    Si4039   Si       0.66209    0.55069    0.84408    1.000
    N4040    N        0.68016    0.58358    0.82060    1.000
    N4041    N        0.69122    0.51883    0.85187    1.000
    N4042    N        0.69263    0.55036    0.75545    1.000
    Si4043   Si       0.63585    0.63556    0.76442    1.000
    N4044    N        0.67473    0.65438    0.76558    1.000
    N4045    N        0.66388    0.65205    0.84193    1.000
    N4046    N        0.65052    0.71853    0.75251    1.000
    Si4047   Si       0.68758    0.69476    0.75357    1.000
    Si4048   Si       0.68694    0.74568    0.84340    1.000
    Si4049   Si       0.68222    0.68407    0.86198    1.000
    N4050    N        0.67229    0.75852    0.80497    1.000
    Si4051   Si       0.68172    0.58675    0.90451    1.000
    N4052    N        0.65046    0.61480    0.91611    1.000
    N4053    N        0.65164    0.55991    0.88599    1.000
    N4054    N        0.69024    0.61897    0.97517    1.000
    N4055    N        0.69479    0.55188    0.99636    1.000
    Si4056   Si       0.63749    0.52267    0.90362    1.000
    N4057    N        0.64781    0.75343    0.93769    1.000
    Si4058   Si       0.67217    0.74890    0.90415    1.000
    Si4059   Si       0.65765    0.63836    0.95139    1.000
    N4060    N        0.66960    0.68070    0.94716    1.000
    N4061    N        0.65651    0.71867    0.87549    1.000
    Si4062   Si       0.67130    0.81146    0.08556    1.000
    Si4063   Si       0.65487    0.78968    0.01937    1.000
    N4064    N        0.64782    0.81843    0.04977    1.000
    N4065    N        0.66653    0.87367    0.01335    1.000
    N4066    N        0.68882    0.80748    0.99971    1.000
    N4067    N        0.65206    0.79443    0.12024    1.000
    N4068    N        0.66997    0.92924    0.05791    1.000
    Si4069   Si       0.68429    0.91361    0.02046    1.000
    Si4070   Si       0.63487    0.98291    0.11326    1.000
    Si4071   Si       0.67842    0.76448    0.14340    1.000
    N4072    N        0.68093    0.77671    0.18633    1.000
    Si4073   Si       0.68000    0.81713    0.20307    1.000
    Si4074   Si       0.68296    0.86731    0.13420    1.000
    N4075    N        0.67827    0.84771    0.17397    1.000
    N4076    N        0.64463    0.82389    0.22423    1.000
    N4077    N        0.63921    0.86966    0.13248    1.000
    Si4078   Si       0.63410    0.85906    0.17299    1.000
    N4079    N        0.63686    0.00104    0.22513    1.000
    N4080    N        0.67209    0.96550    0.12396    1.000
    N4081    N        0.64999    0.94572    0.18314    1.000
    Si4082   Si       0.68978    0.94110    0.16927    1.000
    Si4083   Si       0.67640    0.00402    0.24530    1.000
    N4084    N        0.66159    0.78337    0.34885    1.000
    N4085    N        0.68866    0.84210    0.32165    1.000
    Si4086   Si       0.63914    0.81127    0.37296    1.000
    Si4087   Si       0.68515    0.88356    0.31192    1.000
    N4088    N        0.65214    0.96344    0.31603    1.000
    Si4089   Si       0.68007    0.94962    0.34966    1.000
    N4090    N        0.64131    0.89212    0.30763    1.000
    Si4091   Si       0.67186    0.00278    0.31955    1.000
    N4092    N        0.64915    0.92798    0.25003    1.000
    Si4093   Si       0.69166    0.92587    0.24497    1.000
    N4094    N        0.69576    0.91039    0.34379    1.000
    N4095    N        0.66404    0.83851    0.39575    1.000
    N4096    N        0.65553    0.78603    0.46692    1.000
    N4097    N        0.66907    0.85736    0.48036    1.000
    Si4098   Si       0.64108    0.82550    0.48609    1.000
    Si4099   Si       0.69022    0.76319    0.48185    1.000
    Si4100   Si       0.64551    0.87727    0.39954    1.000
    N4101    N        0.65667    0.95866    0.38609    1.000
    Si4102   Si       0.65298    0.89381    0.46388    1.000
    N4103    N        0.67619    0.92865    0.47279    1.000
    N4104    N        0.68073    0.89257    0.42178    1.000
    Si4105   Si       0.66851    0.99212    0.41120    1.000
    N4106    N        0.66750    0.78615    0.58269    1.000
    N4107    N        0.65860    0.86121    0.58828    1.000
    Si4108   Si       0.65055    0.82160    0.60190    1.000
    Si4109   Si       0.66851    0.86282    0.54421    1.000
    Si4110   Si       0.70092    0.79817    0.55332    1.000
    N4111    N        0.63653    0.83076    0.53120    1.000
    Si4112   Si       0.65518    0.93341    0.51511    1.000
    N4113    N        0.67739    0.90438    0.54048    1.000
    N4114    N        0.67778    0.97328    0.51136    1.000
    Si4115   Si       0.65970    0.89616    0.61437    1.000
    N4116    N        0.69667    0.91926    0.61709    1.000
    Si4117   Si       0.68592    0.83860    0.66704    1.000
    N4118    N        0.65701    0.81887    0.64433    1.000
    N4119    N        0.66378    0.84233    0.70624    1.000
    Si4120   Si       0.65431    0.80955    0.73391    1.000
    N4121    N        0.68083    0.77599    0.74234    1.000
    Si4122   Si       0.64642    0.88070    0.69500    1.000
    N4123    N        0.67054    0.88380    0.65687    1.000
    N4124    N        0.65324    0.97679    0.71021    1.000
    N4125    N        0.66704    0.98255    0.63185    1.000
    N4126    N        0.66446    0.91090    0.72306    1.000
    Si4127   Si       0.64018    0.94184    0.73932    1.000
    Si4128   Si       0.69628    0.98294    0.70162    1.000
    N4129    N        0.67131    0.82822    0.83550    1.000
    Si4130   Si       0.67092    0.84829    0.79780    1.000
    N4131    N        0.64297    0.83019    0.76960    1.000
    Si4132   Si       0.64155    0.80386    0.85462    1.000
    N4133    N        0.67252    0.89253    0.79854    1.000
    Si4134   Si       0.65806    0.92927    0.81720    1.000
    N4135    N        0.64771    0.95407    0.78030    1.000
    N4136    N        0.68709    0.93972    0.84983    1.000
    N4137    N        0.67547    0.77833    0.87339    1.000
    N4138    N        0.64477    0.83831    0.95292    1.000
    Si4139   Si       0.65198    0.84744    0.90883    1.000
    Si4140   Si       0.67667    0.84525    0.98211    1.000
    N4141    N        0.69413    0.84086    0.90176    1.000
    Si4142   Si       0.68226    0.95921    0.95671    1.000
    N4143    N        0.66233    0.94137    0.99120    1.000
    N4144    N        0.66616    0.94042    0.92093    1.000
    N4145    N        0.66357    0.00152    0.95230    1.000
    N4146    N        0.72814    0.08476    0.10627    1.000
    Si4147   Si       0.72887    0.02456    0.02066    1.000
    Si4148   Si       0.70456    0.10301    0.06908    1.000
    N4149    N        0.70552    0.01981    0.10949    1.000
    Si4150   Si       0.73143    0.12395    0.00369    1.000
    N4151    N        0.74031    0.10383    0.04253    1.000
    N4152    N        0.69293    0.03241    0.04086    1.000
    Si4153   Si       0.73661    0.24462    0.03506    1.000
    N4154    N        0.72055    0.16312    0.01775    1.000
    N4155    N        0.73164    0.21074    0.06531    1.000
    Si4156   Si       0.73068    0.20982    0.11033    1.000
    Si4157   Si       0.70443    0.17704    0.05498    1.000
    N4158    N        0.70681    0.14574    0.08540    1.000
    N4159    N        0.72493    0.25315    0.11700    1.000
    N4160    N        0.70259    0.10557    0.20674    1.000
    N4161    N        0.74436    0.03983    0.16749    1.000
    Si4162   Si       0.71782    0.05297    0.13493    1.000
    Si4163   Si       0.74158    0.12006    0.19635    1.000
    N4164    N        0.69699    0.02959    0.21531    1.000
    Si4165   Si       0.72743    0.00882    0.19409    1.000
    N4166    N        0.74760    0.22541    0.20674    1.000
    N4167    N        0.69759    0.19029    0.13202    1.000
    N4168    N        0.73783    0.13315    0.15339    1.000
    N4169    N        0.75148    0.15791    0.22045    1.000
    Si4170   Si       0.72326    0.19271    0.21736    1.000
    Si4171   Si       0.70316    0.14687    0.12866    1.000
    N4172    N        0.72833    0.06958    0.33554    1.000
    Si4173   Si       0.73307    0.06332    0.29380    1.000
    N4174    N        0.74177    0.02125    0.28903    1.000
    Si4175   Si       0.70416    0.10071    0.35600    1.000
    N4176    N        0.69973    0.08556    0.27559    1.000
    Si4177   Si       0.75471    0.06544    0.36809    1.000
    N4178    N        0.73239    0.20316    0.31160    1.000
    Si4179   Si       0.71636    0.23495    0.28319    1.000
    N4180    N        0.70197    0.21158    0.25065    1.000
    N4181    N        0.70121    0.13780    0.32874    1.000
    Si4182   Si       0.69949    0.18083    0.33217    1.000
    N4183    N        0.75177    0.25668    0.34309    1.000
    N4184    N        0.72501    0.08856    0.39531    1.000
    N4185    N        0.73267    0.04570    0.44701    1.000
    Si4186   Si       0.74011    0.12624    0.41234    1.000
    N4187    N        0.74651    0.11796    0.45450    1.000
    Si4188   Si       0.69967    0.06406    0.42289    1.000
    Si4189   Si       0.71940    0.03587    0.49552    1.000
    N4190    N        0.72356    0.19175    0.46959    1.000
    N4191    N        0.70459    0.14996    0.42308    1.000
    Si4192   Si       0.71243    0.19195    0.41138    1.000
    N4193    N        0.74946    0.20949    0.39812    1.000
    Si4194   Si       0.71475    0.14911    0.46787    1.000
    Si4195   Si       0.70084    0.22890    0.46975    1.000
    Si4196   Si       0.75594    0.25075    0.38589    1.000
    N4197    N        0.72638    0.09635    0.56877    1.000
    N4198    N        0.71259    0.02275    0.54049    1.000
    Si4199   Si       0.71298    0.05180    0.57394    1.000
    N4200    N        0.70713    0.03627    0.61517    1.000
    N4201    N        0.74079    0.07287    0.50569    1.000
    Si4202   Si       0.74702    0.10819    0.52871    1.000
    N4203    N        0.72965    0.14545    0.51116    1.000
    N4204    N        0.71856    0.21161    0.53819    1.000
    N4205    N        0.71155    0.20495    0.60557    1.000
    Si4206   Si       0.73944    0.18662    0.51148    1.000
    Si4207   Si       0.69651    0.22541    0.57053    1.000
    N4208    N        0.75270    0.07119    0.69766    1.000
    Si4209   Si       0.74894    0.02154    0.62636    1.000
    Si4210   Si       0.70872    0.11378    0.64575    1.000
    Si4211   Si       0.71099    0.06111    0.69710    1.000
    N4212    N        0.74721    0.09621    0.63440    1.000
    N4213    N        0.69786    0.06100    0.73725    1.000
    N4214    N        0.70082    0.02109    0.68162    1.000
    N4215    N        0.71509    0.15363    0.66219    1.000
    Si4216   Si       0.75124    0.16828    0.67873    1.000
    Si4217   Si       0.70152    0.19331    0.64768    1.000
    Si4218   Si       0.73686    0.24622    0.68089    1.000
    N4219    N        0.74680    0.20746    0.65494    1.000
    N4220    N        0.73125    0.09156    0.78705    1.000
    N4221    N        0.70100    0.02848    0.80342    1.000
    N4222    N        0.72488    0.06854    0.85770    1.000
    Si4223   Si       0.74164    0.09859    0.82952    1.000
    Si4224   Si       0.69862    0.10061    0.75975    1.000
    Si4225   Si       0.69106    0.04891    0.84029    1.000
    N4226    N        0.73507    0.14026    0.84052    1.000
    Si4227   Si       0.72188    0.21594    0.79164    1.000
    Si4228   Si       0.70860    0.22417    0.86226    1.000
    N4229    N        0.74178    0.25047    0.85659    1.000
    Si4230   Si       0.70246    0.15142    0.86479    1.000
    Si4231   Si       0.75035    0.16506    0.75252    1.000
    N4232    N        0.73521    0.25560    0.79246    1.000
    N4233    N        0.69655    0.20788    0.75512    1.000
    N4234    N        0.71003    0.14181    0.74848    1.000
    N4235    N        0.72366    0.02864    0.97767    1.000
    Si4236   Si       0.71642    0.08463    0.89858    1.000
    N4237    N        0.70608    0.09708    0.98130    1.000
    N4238    N        0.69698    0.05362    0.92042    1.000
    Si4239   Si       0.69435    0.05827    0.96442    1.000
    N4240    N        0.69478    0.12147    0.89492    1.000
    Si4241   Si       0.75340    0.13610    0.94030    1.000
    N4242    N        0.72284    0.16863    0.95021    1.000
    N4243    N        0.71251    0.18705    0.88715    1.000
    Si4244   Si       0.69626    0.25614    0.96793    1.000
    Si4245   Si       0.73652    0.19122    0.98604    1.000
    N4246    N        0.72048    0.23207    0.99582    1.000
    N4247    N        0.71324    0.27572    0.05367    1.000
    Si4248   Si       0.71072    0.31882    0.05622    1.000
    N4249    N        0.74938    0.33791    0.05229    1.000
    N4250    N        0.71209    0.38231    0.09075    1.000
    N4251    N        0.74344    0.38432    0.01159    1.000
    Si4252   Si       0.74276    0.38344    0.05892    1.000
    Si4253   Si       0.71048    0.45539    0.05542    1.000
    N4254    N        0.70645    0.45861    0.09895    1.000
    N4255    N        0.70952    0.49523    0.03798    1.000
    N4256    N        0.74463    0.42908    0.05400    1.000
    Si4257   Si       0.71133    0.33723    0.19078    1.000
    N4258    N        0.70076    0.29457    0.19250    1.000
    N4259    N        0.69515    0.35177    0.15280    1.000
    Si4260   Si       0.72639    0.25933    0.18622    1.000
    Si4261   Si       0.72789    0.43247    0.19113    1.000
    N4262    N        0.73115    0.42047    0.14932    1.000
    N4263    N        0.74561    0.49337    0.14518    1.000
    N4264    N        0.73535    0.40255    0.22190    1.000
    Si4265   Si       0.70267    0.39223    0.13109    1.000
    Si4266   Si       0.74211    0.45502    0.12416    1.000
    Si4267   Si       0.73419    0.49412    0.23853    1.000
    N4268    N        0.72697    0.32685    0.32171    1.000
    Si4269   Si       0.72896    0.28374    0.31748    1.000
    N4270    N        0.74487    0.27032    0.27681    1.000
    Si4271   Si       0.69600    0.35675    0.30990    1.000
    N4272    N        0.71727    0.38604    0.28665    1.000
    Si4273   Si       0.73289    0.49092    0.34698    1.000
    N4274    N        0.69264    0.47999    0.33278    1.000
    N4275    N        0.69349    0.49173    0.25505    1.000
    Si4276   Si       0.70167    0.39126    0.24689    1.000
    Si4277   Si       0.75425    0.27447    0.45167    1.000
    N4278    N        0.73175    0.27592    0.41335    1.000
    N4279    N        0.73263    0.36862    0.38049    1.000
    N4280    N        0.70983    0.34207    0.47568    1.000
    N4281    N        0.71891    0.26732    0.47833    1.000
    Si4282   Si       0.75104    0.34802    0.47034    1.000
    N4283    N        0.71233    0.44168    0.44305    1.000
    N4284    N        0.72607    0.49301    0.38942    1.000
    Si4285   Si       0.72360    0.45094    0.40247    1.000
    Si4286   Si       0.74597    0.42165    0.46356    1.000
    Si4287   Si       0.72340    0.34916    0.58623    1.000
    Si4288   Si       0.73438    0.27703    0.60555    1.000
    N4289    N        0.70150    0.26818    0.58062    1.000
    N4290    N        0.74842    0.31924    0.60555    1.000
    N4291    N        0.71042    0.38272    0.60976    1.000
    Si4292   Si       0.71390    0.44319    0.52710    1.000
    N4293    N        0.73497    0.41074    0.50436    1.000
    N4294    N        0.74735    0.47098    0.53195    1.000
    N4295    N        0.69959    0.42923    0.56333    1.000
    N4296    N        0.73290    0.27823    0.65058    1.000
    N4297    N        0.74059    0.34894    0.67314    1.000
    Si4298   Si       0.75360    0.31592    0.64979    1.000
    Si4299   Si       0.71687    0.37895    0.65342    1.000
    N4300    N        0.72670    0.25671    0.72195    1.000
    Si4301   Si       0.70758    0.45041    0.66573    1.000
    N4302    N        0.73769    0.41698    0.66255    1.000
    N4303    N        0.74142    0.48327    0.66598    1.000
    N4304    N        0.71813    0.31253    0.84285    1.000
    Si4305   Si       0.73466    0.28173    0.75958    1.000
    Si4306   Si       0.74839    0.28587    0.82348    1.000
    N4307    N        0.73247    0.36470    0.74917    1.000
    N4308    N        0.69511    0.30146    0.75720    1.000
    N4309    N        0.73304    0.37894    0.86040    1.000
    Si4310   Si       0.71013    0.41407    0.84832    1.000
    N4311    N        0.74300    0.43334    0.75788    1.000
    Si4312   Si       0.70852    0.44861    0.77725    1.000
    Si4313   Si       0.73848    0.39570    0.77969    1.000
    N4314    N        0.71842    0.48758    0.79631    1.000
    N4315    N        0.70543    0.41184    0.80286    1.000
    N4316    N        0.70977    0.45377    0.86426    1.000
    Si4317   Si       0.72780    0.34031    0.87614    1.000
    Si4318   Si       0.75076    0.30921    0.93978    1.000
    Si4319   Si       0.70761    0.36426    0.99025    1.000
    N4320    N        0.71117    0.28843    0.93891    1.000
    N4321    N        0.73832    0.33733    0.97046    1.000
    N4322    N        0.73460    0.44434    0.98564    1.000
    N4323    N        0.72443    0.56067    0.06734    1.000
    N4324    N        0.72865    0.61821    0.09964    1.000
    Si4325   Si       0.70053    0.59551    0.07559    1.000
    Si4326   Si       0.69560    0.52831    0.06355    1.000
    N4327    N        0.69500    0.52151    0.10802    1.000
    N4328    N        0.72005    0.72113    0.01378    1.000
    N4329    N        0.73420    0.65135    0.01581    1.000
    Si4330   Si       0.71561    0.74997    0.08475    1.000
    N4331    N        0.71976    0.69156    0.12303    1.000
    N4332    N        0.75393    0.73062    0.07529    1.000
    Si4333   Si       0.74446    0.68846    0.99507    1.000
    Si4334   Si       0.73509    0.53106    0.12597    1.000
    Si4335   Si       0.73537    0.56325    0.19423    1.000
    N4336    N        0.70396    0.58912    0.21037    1.000
    Si4337   Si       0.73812    0.60997    0.14038    1.000
    N4338    N        0.73486    0.52229    0.20627    1.000
    N4339    N        0.73367    0.56593    0.15111    1.000
    Si4340   Si       0.71733    0.63117    0.21122    1.000
    N4341    N        0.73922    0.75702    0.23593    1.000
    N4342    N        0.72993    0.64132    0.17123    1.000
    Si4343   Si       0.70376    0.74967    0.21269    1.000
    N4344    N        0.71283    0.70775    0.19601    1.000
    Si4345   Si       0.73370    0.68495    0.16570    1.000
    Si4346   Si       0.69278    0.69490    0.23383    1.000
    N4347    N        0.75387    0.64319    0.23299    1.000
    N4348    N        0.72615    0.59065    0.32657    1.000
    N4349    N        0.72952    0.54713    0.27064    1.000
    N4350    N        0.74612    0.53222    0.33513    1.000
    Si4351   Si       0.69157    0.56406    0.32914    1.000
    Si4352   Si       0.72954    0.63257    0.32869    1.000
    N4353    N        0.71758    0.69135    0.27108    1.000
    N4354    N        0.73780    0.71136    0.33630    1.000
    Si4355   Si       0.70555    0.69438    0.31233    1.000
    Si4356   Si       0.72948    0.74688    0.36290    1.000
    Si4357   Si       0.71134    0.54491    0.47242    1.000
    Si4358   Si       0.72328    0.53890    0.39624    1.000
    N4359    N        0.74288    0.51550    0.47442    1.000
    N4360    N        0.72557    0.58033    0.49201    1.000
    N4361    N        0.70294    0.55614    0.43255    1.000
    N4362    N        0.71127    0.62929    0.44492    1.000
    Si4363   Si       0.69626    0.61455    0.48453    1.000
    Si4364   Si       0.70116    0.63898    0.40154    1.000
    N4365    N        0.73272    0.63772    0.37248    1.000
    Si4366   Si       0.70926    0.67269    0.45365    1.000
    Si4367   Si       0.74780    0.73020    0.46508    1.000
    N4368    N        0.75015    0.68506    0.45659    1.000
    N4369    N        0.72503    0.59253    0.58272    1.000
    Si4370   Si       0.72165    0.58552    0.53784    1.000
    N4371    N        0.72477    0.53899    0.54565    1.000
    Si4372   Si       0.71191    0.62219    0.61380    1.000
    N4373    N        0.70500    0.62479    0.52690    1.000
    Si4374   Si       0.74445    0.51149    0.51861    1.000
    N4375    N        0.69892    0.53360    0.61688    1.000
    N4376    N        0.73403    0.72376    0.57952    1.000
    Si4377   Si       0.71946    0.72807    0.53833    1.000
    Si4378   Si       0.71216    0.73174    0.61530    1.000
    Si4379   Si       0.70892    0.56423    0.64833    1.000
    N4380    N        0.70564    0.54792    0.68862    1.000
    N4381    N        0.75182    0.57460    0.64372    1.000
    N4382    N        0.75273    0.62318    0.70325    1.000
    N4383    N        0.74427    0.51031    0.73204    1.000
    Si4384   Si       0.72234    0.50851    0.69462    1.000
    N4385    N        0.74572    0.64008    0.63844    1.000
    N4386    N        0.72377    0.70147    0.64703    1.000
    N4387    N        0.70283    0.67627    0.71510    1.000
    Si4388   Si       0.70637    0.63611    0.73651    1.000
    N4389    N        0.72203    0.61117    0.76938    1.000
    Si4390   Si       0.72146    0.51857    0.76681    1.000
    N4391    N        0.73835    0.54578    0.79922    1.000
    Si4392   Si       0.70683    0.57643    0.78821    1.000
    Si4393   Si       0.72738    0.51421    0.83041    1.000
    Si4394   Si       0.69695    0.62179    0.83799    1.000
    N4395    N        0.73050    0.75902    0.84662    1.000
    N4396    N        0.73616    0.64271    0.83363    1.000
    N4397    N        0.72222    0.72116    0.76526    1.000
    N4398    N        0.70518    0.70645    0.83323    1.000
    Si4399   Si       0.74664    0.71795    0.84021    1.000
    N4400    N        0.70978    0.60206    0.87489    1.000
    N4401    N        0.71550    0.57609    0.92967    1.000
    Si4402   Si       0.74320    0.59592    0.90139    1.000
    Si4403   Si       0.71501    0.58322    0.97429    1.000
    N4404    N        0.74183    0.51063    0.97628    1.000
    Si4405   Si       0.70244    0.50925    0.99735    1.000
    N4406    N        0.70804    0.66946    0.89254    1.000
    N4407    N        0.70988    0.73413    0.91795    1.000
    Si4408   Si       0.74713    0.65752    0.87399    1.000
    N4409    N        0.74445    0.67984    0.95138    1.000
    Si4410   Si       0.70734    0.69215    0.92956    1.000
    Si4411   Si       0.72234    0.80312    0.02597    1.000
    N4412    N        0.73371    0.84470    0.03634    1.000
    Si4413   Si       0.73867    0.84684    0.08302    1.000
    Si4414   Si       0.73868    0.87305    0.00157    1.000
    N4415    N        0.70285    0.78592    0.06108    1.000
    N4416    N        0.69974    0.84310    0.09971    1.000
    N4417    N        0.72600    0.91218    0.01406    1.000
    Si4418   Si       0.74726    0.94949    0.00531    1.000
    N4419    N        0.74623    0.98421    0.02766    1.000
    N4420    N        0.74470    0.95640    0.11357    1.000
    N4421    N        0.71826    0.76459    0.12518    1.000
    N4422    N        0.71697    0.81577    0.22529    1.000
    N4423    N        0.74754    0.82221    0.16264    1.000
    Si4424   Si       0.74998    0.83387    0.20350    1.000
    N4425    N        0.75252    0.87364    0.21914    1.000
    Si4426   Si       0.75359    0.79012    0.13374    1.000
    Si4427   Si       0.74039    0.91385    0.12574    1.000
    Si4428   Si       0.71118    0.98040    0.12509    1.000
    N4429    N        0.71369    0.97866    0.16799    1.000
    N4430    N        0.71027    0.92469    0.20546    1.000
    N4431    N        0.69915    0.90738    0.14041    1.000
    Si4432   Si       0.75217    0.91284    0.19788    1.000
    N4433    N        0.72946    0.78777    0.35185    1.000
    Si4434   Si       0.73381    0.79249    0.26230    1.000
    Si4435   Si       0.74446    0.87417    0.26321    1.000
    N4436    N        0.75007    0.83572    0.28095    1.000
    N4437    N        0.69970    0.78068    0.28851    1.000
    Si4438   Si       0.69503    0.80080    0.32640    1.000
    N4439    N        0.70893    0.89659    0.27534    1.000
    Si4440   Si       0.73130    0.89703    0.36741    1.000
    N4441    N        0.70569    0.98344    0.33798    1.000
    Si4442   Si       0.74578    0.99783    0.32874    1.000
    Si4443   Si       0.74343    0.98619    0.26418    1.000
    N4444    N        0.70391    0.96916    0.25265    1.000
    N4445    N        0.72980    0.85411    0.38060    1.000
    N4446    N        0.72983    0.76975    0.46262    1.000
    N4447    N        0.72071    0.83321    0.44852    1.000
    Si4448   Si       0.71232    0.85256    0.48739    1.000
    Si4449   Si       0.70109    0.85070    0.41473    1.000
    Si4450   Si       0.75307    0.80489    0.44777    1.000
    Si4451   Si       0.75601    0.91620    0.49322    1.000
    N4452    N        0.69989    0.97628    0.43479    1.000
    N4453    N        0.73288    0.92615    0.39855    1.000
    Si4454   Si       0.70567    0.96091    0.47973    1.000
    N4455    N        0.73656    0.93170    0.45888    1.000
    N4456    N        0.73160    0.99395    0.48612    1.000
    Si4457   Si       0.73641    0.00125    0.43931    1.000
    Si4458   Si       0.70290    0.92991    0.43120    1.000
    Si4459   Si       0.74499    0.84801    0.55652    1.000
    N4460    N        0.73576    0.81184    0.57972    1.000
    N4461    N        0.70470    0.83734    0.53333    1.000
    N4462    N        0.69907    0.76535    0.52492    1.000
    N4463    N        0.74975    0.87360    0.49444    1.000
    Si4464   Si       0.73723    0.81118    0.62493    1.000
    N4465    N        0.74220    0.88882    0.57221    1.000
    N4466    N        0.71115    0.96419    0.57264    1.000
    N4467    N        0.73356    0.93803    0.52264    1.000
    Si4468   Si       0.73109    0.98136    0.53552    1.000
    Si4469   Si       0.71350    0.92166    0.55991    1.000
    Si4470   Si       0.70222    0.96194    0.61531    1.000
    Si4471   Si       0.74587    0.83787    0.69235    1.000
    Si4472   Si       0.72194    0.76538    0.67520    1.000
    N4473    N        0.71742    0.84974    0.63290    1.000
    N4474    N        0.72418    0.76920    0.63178    1.000
    N4475    N        0.71523    0.80820    0.68303    1.000
    N4476    N        0.72556    0.87567    0.69003    1.000
    N4477    N        0.73968    0.97981    0.63231    1.000
    N4478    N        0.71375    0.98916    0.74200    1.000
    N4479    N        0.71578    0.94630    0.68650    1.000
    Si4480   Si       0.70692    0.91000    0.71043    1.000
    Si4481   Si       0.75167    0.94769    0.66107    1.000
    Si4482   Si       0.71501    0.89119    0.64590    1.000
    N4483    N        0.75558    0.91092    0.63639    1.000
    N4484    N        0.72632    0.91625    0.74946    1.000
    N4485    N        0.73559    0.78804    0.78767    1.000
    N4486    N        0.70766    0.84860    0.77184    1.000
    N4487    N        0.74205    0.82281    0.85900    1.000
    Si4488   Si       0.74266    0.82605    0.76752    1.000
    Si4489   Si       0.70622    0.75933    0.77402    1.000
    Si4490   Si       0.75097    0.79331    0.82776    1.000
    Si4491   Si       0.71110    0.89217    0.78077    1.000
    Si4492   Si       0.73859    0.95753    0.75912    1.000
    N4493    N        0.73426    0.96260    0.80175    1.000
    Si4494   Si       0.72742    0.93636    0.83405    1.000
    N4495    N        0.73821    0.89626    0.81412    1.000
    Si4496   Si       0.73763    0.00543    0.80965    1.000
    Si4497   Si       0.70072    0.81512    0.86708    1.000
    Si4498   Si       0.72114    0.86724    0.92556    1.000
    N4499    N        0.71245    0.86225    0.96639    1.000
    N4500    N        0.72042    0.90668    0.90421    1.000
    Si4501   Si       0.73445    0.99659    0.94797    1.000
    N4502    N        0.70953    0.98353    0.91326    1.000
    N4503    N        0.72398    0.96119    0.97118    1.000
    Si4504   Si       0.70014    0.94302    0.89277    1.000
    Si4505   Si       0.77939    0.08276    0.04411    1.000
    N4506    N        0.79331    0.07957    0.08609    1.000
    Si4507   Si       0.76779    0.09893    0.11541    1.000
    N4508    N        0.76619    0.04359    0.03415    1.000
    N4509    N        0.78507    0.13889    0.11067    1.000
    N4510    N        0.79430    0.24969    0.10332    1.000
    Si4511   Si       0.80437    0.22568    0.01060    1.000
    N4512    N        0.77762    0.25876    0.02548    1.000
    Si4513   Si       0.80371    0.26227    0.06178    1.000
    N4514    N        0.79113    0.08514    0.15032    1.000
    Si4515   Si       0.77905    0.05895    0.18440    1.000
    N4516    N        0.77081    0.09035    0.21418    1.000
    N4517    N        0.81148    0.03178    0.18932    1.000
    Si4518   Si       0.79269    0.09241    0.25099    1.000
    N4519    N        0.76560    0.19719    0.13385    1.000
    Si4520   Si       0.77112    0.15861    0.14714    1.000
    Si4521   Si       0.80634    0.21630    0.12954    1.000
    Si4522   Si       0.79082    0.23342    0.20390    1.000
    N4523    N        0.79907    0.14897    0.17888    1.000
    N4524    N        0.81008    0.20200    0.23109    1.000
    Si4525   Si       0.79445    0.16292    0.22128    1.000
    N4526    N        0.76692    0.08848    0.28548    1.000
    N4527    N        0.76161    0.02061    0.36276    1.000
    N4528    N        0.79450    0.08132    0.37052    1.000
    N4529    N        0.80727    0.13407    0.25165    1.000
    N4530    N        0.79488    0.20288    0.35214    1.000
    N4531    N        0.78939    0.23148    0.28723    1.000
    Si4532   Si       0.76896    0.22138    0.32346    1.000
    N4533    N        0.80304    0.07719    0.47107    1.000
    Si4534   Si       0.76129    0.07806    0.46471    1.000
    Si4535   Si       0.81320    0.11876    0.38519    1.000
    N4536    N        0.79604    0.25901    0.39758    1.000
    Si4537   Si       0.80941    0.23545    0.43166    1.000
    Si4538   Si       0.78649    0.18407    0.39231    1.000
    N4539    N        0.77340    0.14339    0.39146    1.000
    N4540    N        0.78133    0.24276    0.46416    1.000
    N4541    N        0.79017    0.11872    0.53247    1.000
    N4542    N        0.80258    0.09457    0.59210    1.000
    Si4543   Si       0.79119    0.02125    0.56347    1.000
    Si4544   Si       0.76049    0.08639    0.59433    1.000
    N4545    N        0.75976    0.04256    0.58612    1.000
    N4546    N        0.81038    0.05030    0.53924    1.000
    Si4547   Si       0.80679    0.15610    0.51797    1.000
    N4548    N        0.78061    0.18499    0.58905    1.000
    N4549    N        0.78283    0.19129    0.51292    1.000
    Si4550   Si       0.79504    0.23194    0.50492    1.000
    N4551    N        0.77388    0.25110    0.60779    1.000
    Si4552   Si       0.75439    0.20917    0.61157    1.000
    Si4553   Si       0.77574    0.09527    0.66863    1.000
    Si4554   Si       0.79111    0.05986    0.71671    1.000
    N4555    N        0.78626    0.02513    0.64842    1.000
    N4556    N        0.79651    0.01686    0.71965    1.000
    N4557    N        0.81361    0.07980    0.68658    1.000
    N4558    N        0.75491    0.19137    0.71736    1.000
    N4559    N        0.78098    0.13747    0.68065    1.000
    Si4560   Si       0.78937    0.22046    0.71600    1.000
    Si4561   Si       0.80700    0.14713    0.71289    1.000
    N4562    N        0.78210    0.25077    0.68641    1.000
    N4563    N        0.77898    0.07566    0.82758    1.000
    Si4564   Si       0.76809    0.06697    0.78352    1.000
    N4565    N        0.80337    0.07250    0.75786    1.000
    Si4566   Si       0.76425    0.04791    0.85984    1.000
    N4567    N        0.76455    0.02443    0.78316    1.000
    N4568    N        0.75745    0.00903    0.84816    1.000
    N4569    N        0.80166    0.13851    0.82011    1.000
    Si4570   Si       0.78209    0.23705    0.85722    1.000
    Si4571   Si       0.76858    0.16636    0.82798    1.000
    N4572    N        0.78403    0.19154    0.86090    1.000
    Si4573   Si       0.79348    0.21725    0.78577    1.000
    N4574    N        0.79988    0.24248    0.81946    1.000
    N4575    N        0.78838    0.14323    0.75149    1.000
    N4576    N        0.79936    0.24246    0.75200    1.000
    N4577    N        0.75754    0.19025    0.78978    1.000
    Si4578   Si       0.80794    0.11360    0.98046    1.000
    N4579    N        0.78706    0.04578    0.89747    1.000
    Si4580   Si       0.79574    0.08587    0.91134    1.000
    Si4581   Si       0.80795    0.01326    0.91554    1.000
    N4582    N        0.75436    0.10036    0.91670    1.000
    N4583    N        0.76700    0.12713    0.98014    1.000
    Si4584   Si       0.80602    0.17729    0.95895    1.000
    Si4585   Si       0.80869    0.18349    0.89571    1.000
    N4586    N        0.78851    0.15807    0.92559    1.000
    N4587    N        0.77998    0.19664    0.98918    1.000
    N4588    N        0.81009    0.25379    0.88560    1.000
    Si4589   Si       0.78274    0.33614    0.08425    1.000
    Si4590   Si       0.75961    0.34085    0.00807    1.000
    N4591    N        0.78311    0.38210    0.08454    1.000
    N4592    N        0.79675    0.32313    0.99743    1.000
    N4593    N        0.80947    0.30517    0.06753    1.000
    N4594    N        0.76683    0.31652    0.11841    1.000
    Si4595   Si       0.76520    0.42421    0.01098    1.000
    N4596    N        0.77838    0.45743    0.10029    1.000
    Si4597   Si       0.78763    0.42568    0.07266    1.000
    Si4598   Si       0.79935    0.49560    0.10121    1.000
    N4599    N        0.80172    0.41807    0.03333    1.000
    Si4600   Si       0.76256    0.27245    0.12502    1.000
    N4601    N        0.75570    0.34225    0.19273    1.000
    Si4602   Si       0.77586    0.31775    0.16328    1.000
    N4603    N        0.76096    0.27648    0.16951    1.000
    N4604    N        0.80206    0.26861    0.22655    1.000
    Si4605   Si       0.76700    0.37438    0.21898    1.000
    Si4606   Si       0.76213    0.49621    0.18386    1.000
    N4607    N        0.80555    0.39753    0.21873    1.000
    N4608    N        0.75156    0.46405    0.20880    1.000
    N4609    N        0.77321    0.35662    0.25925    1.000
    Si4610   Si       0.78614    0.26905    0.26653    1.000
    N4611    N        0.77859    0.37662    0.32989    1.000
    N4612    N        0.78106    0.31585    0.36397    1.000
    Si4613   Si       0.75347    0.34402    0.35070    1.000
    N4614    N        0.81075    0.29935    0.28295    1.000
    Si4615   Si       0.76043    0.38437    0.29050    1.000
    N4616    N        0.78245    0.42085    0.28043    1.000
    Si4617   Si       0.78445    0.46137    0.29531    1.000
    N4618    N        0.76647    0.46534    0.33561    1.000
    N4619    N        0.76140    0.49194    0.27208    1.000
    N4620    N        0.77683    0.31091    0.45913    1.000
    Si4621   Si       0.81038    0.33051    0.48524    1.000
    N4622    N        0.80471    0.37834    0.39182    1.000
    N4623    N        0.75460    0.38270    0.44533    1.000
    Si4624   Si       0.81046    0.46500    0.44164    1.000
    N4625    N        0.77881    0.44947    0.46977    1.000
    Si4626   Si       0.78780    0.45369    0.37187    1.000
    N4627    N        0.80417    0.48177    0.40212    1.000
    Si4628   Si       0.76487    0.38836    0.40376    1.000
    N4629    N        0.76159    0.43120    0.39550    1.000
    Si4630   Si       0.78201    0.33637    0.58310    1.000
    N4631    N        0.78018    0.35715    0.50189    1.000
    Si4632   Si       0.79883    0.26138    0.57252    1.000
    N4633    N        0.75450    0.36017    0.55928    1.000
    N4634    N        0.81020    0.36110    0.60650    1.000
    N4635    N        0.81448    0.30413    0.57787    1.000
    N4636    N        0.78169    0.26130    0.53302    1.000
    Si4637   Si       0.76404    0.38656    0.52835    1.000
    Si4638   Si       0.78009    0.45157    0.51317    1.000
    N4639    N        0.79142    0.41855    0.54055    1.000
    Si4640   Si       0.75529    0.35513    0.71446    1.000
    N4641    N        0.77915    0.32002    0.72441    1.000
    Si4642   Si       0.79908    0.29172    0.69902    1.000
    N4643    N        0.79344    0.30598    0.65826    1.000
    Si4644   Si       0.79343    0.26372    0.64485    1.000
    Si4645   Si       0.77979    0.41776    0.67483    1.000
    N4646    N        0.81127    0.48618    0.63590    1.000
    N4647    N        0.78506    0.45164    0.70084    1.000
    Si4648   Si       0.78515    0.48515    0.67052    1.000
    Si4649   Si       0.77942    0.44927    0.74181    1.000
    N4650    N        0.78223    0.38766    0.70622    1.000
    Si4651   Si       0.79028    0.32813    0.76748    1.000
    N4652    N        0.78952    0.30343    0.84122    1.000
    N4653    N        0.80359    0.36642    0.86432    1.000
    N4654    N        0.75642    0.31113    0.78504    1.000
    N4655    N        0.77275    0.39304    0.80631    1.000
    Si4656   Si       0.77326    0.39363    0.84940    1.000
    N4657    N        0.79912    0.48752    0.75808    1.000
    N4658    N        0.75905    0.50605    0.85946    1.000
    N4659    N        0.77136    0.43317    0.86739    1.000
    Si4660   Si       0.81272    0.40038    0.79355    1.000
    Si4661   Si       0.79876    0.32590    0.87890    1.000
    N4662    N        0.78262    0.28120    0.94983    1.000
    N4663    N        0.76027    0.32653    0.90173    1.000
    Si4664   Si       0.79466    0.28180    0.98983    1.000
    Si4665   Si       0.79713    0.44268    0.90334    1.000
    Si4666   Si       0.75939    0.47335    0.96370    1.000
    N4667    N        0.79330    0.46437    0.98788    1.000
    N4668    N        0.76425    0.46855    0.91986    1.000
    Si4669   Si       0.74973    0.46945    0.87848    1.000
    N4670    N        0.78698    0.53655    0.03040    1.000
    N4671    N        0.78892    0.59476    0.06458    1.000
    N4672    N        0.77288    0.53013    0.09804    1.000
    Si4673   Si       0.76769    0.55655    0.06333    1.000
    Si4674   Si       0.77212    0.62441    0.09247    1.000
    N4675    N        0.78838    0.66416    0.08787    1.000
    N4676    N        0.77983    0.71145    0.00721    1.000
    Si4677   Si       0.76168    0.69561    0.10477    1.000
    Si4678   Si       0.75521    0.73842    0.03195    1.000
    N4679    N        0.77382    0.57902    0.20535    1.000
    Si4680   Si       0.78550    0.61575    0.22768    1.000
    N4681    N        0.78064    0.61333    0.13443    1.000
    Si4682   Si       0.80818    0.55168    0.20022    1.000
    N4683    N        0.80277    0.51234    0.18655    1.000
    Si4684   Si       0.80242    0.72488    0.16710    1.000
    N4685    N        0.77538    0.69726    0.14757    1.000
    N4686    N        0.81011    0.75718    0.22332    1.000
    N4687    N        0.78638    0.60612    0.34414    1.000
    N4688    N        0.79895    0.60677    0.26682    1.000
    N4689    N        0.80095    0.54625    0.29942    1.000
    Si4690   Si       0.76144    0.52889    0.29381    1.000
    Si4691   Si       0.80474    0.62328    0.30681    1.000
    Si4692   Si       0.75897    0.57226    0.34880    1.000
    N4693    N        0.78435    0.70520    0.26689    1.000
    Si4694   Si       0.77777    0.70766    0.35310    1.000
    Si4695   Si       0.77988    0.74620    0.25308    1.000
    N4696    N        0.76364    0.65052    0.30544    1.000
    Si4697   Si       0.75638    0.67140    0.26700    1.000
    N4698    N        0.81145    0.72246    0.32746    1.000
    N4699    N        0.79517    0.67294    0.37384    1.000
    N4700    N        0.78479    0.56844    0.46064    1.000
    Si4701   Si       0.78782    0.57799    0.41861    1.000
    N4702    N        0.78590    0.62235    0.41709    1.000
    Si4703   Si       0.78591    0.52696    0.47312    1.000
    Si4704   Si       0.76722    0.59621    0.48762    1.000
    N4705    N        0.75596    0.56644    0.39179    1.000
    Si4706   Si       0.78296    0.65634    0.44820    1.000
    N4707    N        0.78781    0.74270    0.44835    1.000
    N4708    N        0.76718    0.73819    0.38136    1.000
    Si4709   Si       0.77679    0.63416    0.37593    1.000
    N4710    N        0.78637    0.63631    0.48610    1.000
    N4711    N        0.79240    0.60584    0.59520    1.000
    N4712    N        0.78441    0.54255    0.58392    1.000
    N4713    N        0.77212    0.59135    0.53317    1.000
    Si4714   Si       0.79664    0.55858    0.54381    1.000
    N4715    N        0.78749    0.52511    0.51807    1.000
    Si4716   Si       0.76085    0.57808    0.60094    1.000
    Si4717   Si       0.78714    0.62496    0.55808    1.000
    Si4718   Si       0.80936    0.52097    0.60785    1.000
    Si4719   Si       0.79441    0.72638    0.52798    1.000
    Si4720   Si       0.76790    0.69757    0.58402    1.000
    N4721    N        0.80179    0.72164    0.56871    1.000
    N4722    N        0.76460    0.66010    0.56515    1.000
    N4723    N        0.75413    0.72607    0.51242    1.000
    N4724    N        0.78770    0.69344    0.62274    1.000
    N4725    N        0.81815    0.69737    0.50331    1.000
    Si4726   Si       0.76561    0.61094    0.66368    1.000
    Si4727   Si       0.78585    0.52072    0.73301    1.000
    N4728    N        0.80134    0.52016    0.69267    1.000
    N4729    N        0.80921    0.61258    0.66059    1.000
    Si4730   Si       0.77645    0.65557    0.72132    1.000
    N4731    N        0.77600    0.68667    0.69250    1.000
    Si4732   Si       0.79140    0.72556    0.70275    1.000
    N4733    N        0.75905    0.74967    0.68508    1.000
    Si4734   Si       0.76127    0.67858    0.65300    1.000
    N4735    N        0.79534    0.72649    0.74682    1.000
    Si4736   Si       0.78071    0.56145    0.79288    1.000
    N4737    N        0.78099    0.60549    0.80212    1.000
    Si4738   Si       0.79039    0.53849    0.86235    1.000
    N4739    N        0.79541    0.55640    0.75401    1.000
    N4740    N        0.81001    0.54249    0.82216    1.000
    N4741    N        0.77650    0.70753    0.81002    1.000
    Si4742   Si       0.76368    0.70853    0.76868    1.000
    N4743    N        0.75849    0.66368    0.76104    1.000
    Si4744   Si       0.75077    0.63504    0.79246    1.000
    N4745    N        0.77281    0.57377    0.87893    1.000
    Si4746   Si       0.80268    0.60759    0.88564    1.000
    Si4747   Si       0.80014    0.58872    0.96415    1.000
    N4748    N        0.79781    0.54461    0.95445    1.000
    Si4749   Si       0.77227    0.53954    0.98889    1.000
    N4750    N        0.76791    0.63129    0.90326    1.000
    N4751    N        0.75694    0.58060    0.98273    1.000
    N4752    N        0.81388    0.74957    0.90077    1.000
    N4753    N        0.79767    0.63451    0.97148    1.000
    Si4754   Si       0.77925    0.65621    0.93927    1.000
    N4755    N        0.76694    0.69813    0.87303    1.000
    Si4756   Si       0.80333    0.70836    0.89119    1.000
    N4757    N        0.80950    0.68288    0.92338    1.000
    N4758    N        0.76671    0.81332    0.09722    1.000
    Si4759   Si       0.79980    0.79238    0.01655    1.000
    Si4760   Si       0.80769    0.82361    0.08479    1.000
    N4761    N        0.80771    0.82707    0.04053    1.000
    N4762    N        0.75728    0.78016    0.01913    1.000
    Si4763   Si       0.80805    0.86411    0.01876    1.000
    Si4764   Si       0.79866    0.89687    0.08925    1.000
    N4765    N        0.79688    0.99196    0.07916    1.000
    Si4766   Si       0.78545    0.96911    0.11440    1.000
    N4767    N        0.80465    0.89905    0.04543    1.000
    Si4768   Si       0.78383    0.00446    0.04000    1.000
    N4769    N        0.80986    0.93267    0.11303    1.000
    N4770    N        0.75580    0.88538    0.09537    1.000
    Si4771   Si       0.80196    0.78749    0.19094    1.000
    N4772    N        0.78737    0.81766    0.21741    1.000
    N4773    N        0.78220    0.76519    0.15959    1.000
    Si4774   Si       0.80572    0.91234    0.24081    1.000
    N4775    N        0.76651    0.90864    0.15816    1.000
    N4776    N        0.75810    0.99540    0.22443    1.000
    N4777    N        0.80524    0.97662    0.15753    1.000
    N4778    N        0.78960    0.93599    0.20792    1.000
    Si4779   Si       0.80546    0.93098    0.16367    1.000
    Si4780   Si       0.79444    0.98257    0.20161    1.000
    N4781    N        0.78630    0.82558    0.34446    1.000
    Si4782   Si       0.78275    0.81776    0.30271    1.000
    N4783    N        0.77364    0.77807    0.28388    1.000
    Si4784   Si       0.75222    0.81776    0.37410    1.000
    N4785    N        0.77574    0.90349    0.27139    1.000
    Si4786   Si       0.77927    0.92331    0.30818    1.000
    N4787    N        0.76968    0.96869    0.30337    1.000
    N4788    N        0.76442    0.90117    0.34126    1.000
    N4789    N        0.81306    0.98008    0.36054    1.000
    Si4790   Si       0.81197    0.97241    0.31804    1.000
    N4791    N        0.76988    0.79880    0.40893    1.000
    N4792    N        0.78239    0.81689    0.47709    1.000
    Si4793   Si       0.79278    0.75957    0.40928    1.000
    N4794    N        0.77225    0.98343    0.42303    1.000
    Si4795   Si       0.76421    0.94089    0.42663    1.000
    N4796    N        0.80055    0.92007    0.43656    1.000
    Si4797   Si       0.79185    0.00361    0.39038    1.000
    N4798    N        0.78676    0.84651    0.54070    1.000
    N4799    N        0.79966    0.86471    0.60399    1.000
    Si4800   Si       0.78748    0.85357    0.49788    1.000
    N4801    N        0.77285    0.98950    0.54042    1.000
    Si4802   Si       0.79594    0.95248    0.53977    1.000
    N4803    N        0.79243    0.93425    0.57815    1.000
    Si4804   Si       0.77411    0.90039    0.59921    1.000
    N4805    N        0.79557    0.93053    0.50289    1.000
    N4806    N        0.77225    0.81814    0.65435    1.000
    Si4807   Si       0.80497    0.85028    0.64640    1.000
    Si4808   Si       0.80499    0.80920    0.73103    1.000
    N4809    N        0.76613    0.82594    0.72924    1.000
    Si4810   Si       0.78819    0.77647    0.66345    1.000
    N4811    N        0.81238    0.88024    0.67512    1.000
    N4812    N        0.81157    0.75836    0.63070    1.000
    N4813    N        0.78892    0.95726    0.67937    1.000
    Si4814   Si       0.80364    0.99854    0.68068    1.000
    N4815    N        0.77191    0.83832    0.79799    1.000
    N4816    N        0.79208    0.78122    0.83196    1.000
    N4817    N        0.78342    0.87766    0.86193    1.000
    Si4818   Si       0.77723    0.87833    0.81838    1.000
    Si4819   Si       0.80642    0.81136    0.80328    1.000
    Si4820   Si       0.78572    0.97610    0.85628    1.000
    N4821    N        0.78211    0.96102    0.75597    1.000
    Si4822   Si       0.79636    0.00276    0.76075    1.000
    N4823    N        0.80167    0.96552    0.81798    1.000
    N4824    N        0.75775    0.94332    0.86601    1.000
    Si4825   Si       0.80714    0.94093    0.78376    1.000
    N4826    N        0.80702    0.90103    0.79735    1.000
    Si4827   Si       0.77429    0.83955    0.88202    1.000
    Si4828   Si       0.79245    0.87455    0.94713    1.000
    N4829    N        0.77782    0.86498    0.98707    1.000
    N4830    N        0.76334    0.85600    0.92117    1.000
    N4831    N        0.80930    0.81442    0.88524    1.000
    Si4832   Si       0.76492    0.90734    0.88994    1.000
    Si4833   Si       0.79583    0.95074    0.94864    1.000
    N4834    N        0.77790    0.99159    0.93935    1.000
    N4835    N        0.78693    0.94230    0.99116    1.000
    N4836    N        0.78572    0.91380    0.92820    1.000
    Si4837   Si       0.84733    0.11429    0.04293    1.000
    Si4838   Si       0.83245    0.07666    0.10803    1.000
    N4839    N        0.85869    0.08158    0.07235    1.000
    N4840    N        0.81218    0.10001    0.02256    1.000
    N4841    N        0.82769    0.22573    0.04787    1.000
    N4842    N        0.84174    0.15395    0.06320    1.000
    Si4843   Si       0.85849    0.19321    0.05122    1.000
    Si4844   Si       0.82706    0.14702    0.10412    1.000
    N4845    N        0.83592    0.18443    0.12179    1.000
    N4846    N        0.83922    0.03896    0.12526    1.000
    N4847    N        0.84676    0.11453    0.13064    1.000
    Si4848   Si       0.83167    0.03290    0.22986    1.000
    N4849    N        0.84573    0.09980    0.19917    1.000
    Si4850   Si       0.81899    0.11320    0.16655    1.000
    Si4851   Si       0.83522    0.01157    0.15927    1.000
    N4852    N        0.81618    0.22824    0.17034    1.000
    Si4853   Si       0.85853    0.22606    0.18080    1.000
    N4854    N        0.84915    0.10655    0.30519    1.000
    N4855    N        0.84353    0.04036    0.33435    1.000
    Si4856   Si       0.84898    0.06329    0.29541    1.000
    Si4857   Si       0.86585    0.11927    0.34270    1.000
    N4858    N        0.81935    0.05906    0.26188    1.000
    Si4859   Si       0.83001    0.05791    0.37251    1.000
    Si4860   Si       0.84140    0.13993    0.27889    1.000
    N4861    N        0.83488    0.18029    0.29782    1.000
    Si4862   Si       0.83478    0.18761    0.34158    1.000
    N4863    N        0.85312    0.24375    0.28415    1.000
    N4864    N        0.83468    0.14702    0.35905    1.000
    Si4865   Si       0.82515    0.21219    0.27152    1.000
    N4866    N        0.87084    0.20994    0.34894    1.000
    N4867    N        0.87573    0.14497    0.25399    1.000
    N4868    N        0.85853    0.09233    0.37565    1.000
    Si4869   Si       0.83613    0.10679    0.46867    1.000
    N4870    N        0.82323    0.03125    0.40606    1.000
    N4871    N        0.83880    0.01608    0.48142    1.000
    N4872    N        0.82679    0.12316    0.42641    1.000
    Si4873   Si       0.85059    0.01752    0.43801    1.000
    Si4874   Si       0.82409    0.05294    0.49878    1.000
    N4875    N        0.82994    0.14765    0.48379    1.000
    N4876    N        0.84467    0.25463    0.44284    1.000
    Si4877   Si       0.84418    0.16517    0.44303    1.000
    Si4878   Si       0.86854    0.23438    0.47327    1.000
    N4879    N        0.81590    0.19338    0.42413    1.000
    Si4880   Si       0.84219    0.09460    0.60777    1.000
    N4881    N        0.85045    0.08860    0.50948    1.000
    N4882    N        0.85967    0.10482    0.56936    1.000
    Si4883   Si       0.82112    0.09271    0.54911    1.000
    N4884    N        0.85491    0.05450    0.61967    1.000
    N4885    N        0.83178    0.23269    0.57391    1.000
    N4886    N        0.83946    0.17119    0.54388    1.000
    N4887    N        0.83759    0.23673    0.50413    1.000
    Si4888   Si       0.86086    0.23844    0.54181    1.000
    Si4889   Si       0.82099    0.18907    0.57666    1.000
    N4890    N        0.84120    0.18547    0.61385    1.000
    Si4891   Si       0.85266    0.22707    0.61694    1.000
    Si4892   Si       0.85189    0.10049    0.67923    1.000
    N4893    N        0.84938    0.12233    0.64065    1.000
    Si4894   Si       0.82764    0.02157    0.63102    1.000
    N4895    N        0.85064    0.13030    0.71286    1.000
    N4896    N        0.87101    0.07317    0.74556    1.000
    Si4897   Si       0.86921    0.15940    0.63600    1.000
    N4898    N        0.81940    0.18852    0.70849    1.000
    Si4899   Si       0.86014    0.17480    0.71018    1.000
    N4900    N        0.83607    0.25536    0.64289    1.000
    N4901    N        0.84581    0.08042    0.81313    1.000
    Si4902   Si       0.84124    0.05871    0.77493    1.000
    N4903    N        0.83307    0.01711    0.77757    1.000
    Si4904   Si       0.81408    0.09998    0.83389    1.000
    N4905    N        0.86050    0.13269    0.77752    1.000
    N4906    N        0.82650    0.18907    0.77993    1.000
    N4907    N        0.86231    0.24691    0.77991    1.000
    Si4908   Si       0.86714    0.20395    0.77558    1.000
    Si4909   Si       0.82131    0.14831    0.78279    1.000
    Si4910   Si       0.86719    0.09779    0.87294    1.000
    N4911    N        0.82214    0.09826    0.87750    1.000
    N4912    N        0.84403    0.02883    0.93500    1.000
    Si4913   Si       0.85749    0.07099    0.94401    1.000
    N4914    N        0.81766    0.09147    0.94709    1.000
    Si4915   Si       0.81096    0.25384    0.93047    1.000
    N4916    N        0.82223    0.20955    0.93078    1.000
    N4917    N        0.82719    0.25248    0.98566    1.000
    N4918    N        0.83332    0.15099    0.97985    1.000
    N4919    N        0.85212    0.18333    0.88318    1.000
    Si4920   Si       0.86130    0.21742    0.90966    1.000
    N4921    N        0.83790    0.34818    0.10858    1.000
    Si4922   Si       0.84547    0.33057    0.06867    1.000
    N4923    N        0.83940    0.36130    0.03840    1.000
    Si4924   Si       0.83508    0.34352    0.99922    1.000
    Si4925   Si       0.82059    0.38749    0.11104    1.000
    Si4926   Si       0.84134    0.40276    0.04325    1.000
    N4927    N        0.83451    0.42041    0.08581    1.000
    Si4928   Si       0.84855    0.46088    0.09404    1.000
    N4929    N        0.82431    0.48961    0.06705    1.000
    N4930    N        0.81917    0.30830    0.16536    1.000
    Si4931   Si       0.85404    0.32205    0.14021    1.000
    N4932    N        0.84004    0.32795    0.22480    1.000
    Si4933   Si       0.83198    0.29227    0.20469    1.000
    N4934    N        0.86621    0.26765    0.19351    1.000
    Si4935   Si       0.83804    0.41068    0.19283    1.000
    N4936    N        0.81869    0.39932    0.15218    1.000
    N4937    N        0.84695    0.45345    0.19132    1.000
    N4938    N        0.83332    0.48537    0.12925    1.000
    Si4939   Si       0.83656    0.48958    0.17124    1.000
    N4940    N        0.83695    0.36937    0.27595    1.000
    Si4941   Si       0.84521    0.28351    0.30237    1.000
    N4942    N        0.84181    0.27386    0.34439    1.000
    N4943    N        0.85373    0.36681    0.34354    1.000
    Si4944   Si       0.86737    0.35432    0.30168    1.000
    Si4945   Si       0.81262    0.33624    0.26055    1.000
    Si4946   Si       0.81529    0.38917    0.35018    1.000
    N4947    N        0.82234    0.43321    0.35364    1.000
    N4948    N        0.82297    0.47870    0.29372    1.000
    Si4949   Si       0.85662    0.46175    0.35472    1.000
    N4950    N        0.85447    0.42800    0.26030    1.000
    Si4951   Si       0.81770    0.40381    0.25918    1.000
    N4952    N        0.84205    0.50368    0.35443    1.000
    Si4953   Si       0.86166    0.46420    0.28249    1.000
    Si4954   Si       0.81490    0.29112    0.37594    1.000
    N4955    N        0.83853    0.31621    0.40080    1.000
    N4956    N        0.83303    0.35669    0.45709    1.000
    Si4957   Si       0.83607    0.35678    0.41282    1.000
    Si4958   Si       0.86423    0.28807    0.42169    1.000
    Si4959   Si       0.86964    0.34234    0.47737    1.000
    N4960    N        0.86936    0.38206    0.40589    1.000
    Si4961   Si       0.85407    0.45419    0.49119    1.000
    N4962    N        0.82098    0.50359    0.46068    1.000
    N4963    N        0.84797    0.44208    0.44927    1.000
    Si4964   Si       0.84934    0.30968    0.54850    1.000
    N4965    N        0.84452    0.32072    0.50783    1.000
    Si4966   Si       0.83893    0.32661    0.61023    1.000
    N4967    N        0.86545    0.33927    0.57663    1.000
    Si4968   Si       0.83340    0.43359    0.54750    1.000
    N4969    N        0.83791    0.42933    0.59078    1.000
    Si4970   Si       0.84096    0.46938    0.60795    1.000
    N4971    N        0.82209    0.46841    0.51939    1.000
    N4972    N        0.86216    0.41820    0.51875    1.000
    N4973    N        0.83302    0.49991    0.57622    1.000
    Si4974   Si       0.83070    0.39727    0.61759    1.000
    N4975    N        0.83975    0.28226    0.71095    1.000
    Si4976   Si       0.85995    0.27997    0.66970    1.000
    N4977    N        0.86437    0.31804    0.64553    1.000
    N4978    N        0.86862    0.38836    0.64024    1.000
    Si4979   Si       0.81682    0.39328    0.73067    1.000
    N4980    N        0.81468    0.41710    0.65241    1.000
    Si4981   Si       0.85611    0.41699    0.67059    1.000
    N4982    N        0.85236    0.39363    0.70665    1.000
    Si4983   Si       0.85087    0.33851    0.77884    1.000
    N4984    N        0.82483    0.30259    0.77724    1.000
    N4985    N        0.85734    0.28176    0.83563    1.000
    Si4986   Si       0.84407    0.37138    0.84915    1.000
    N4987    N        0.86088    0.34717    0.81932    1.000
    Si4988   Si       0.81783    0.28094    0.81566    1.000
    N4989    N        0.81840    0.36500    0.76511    1.000
    Si4990   Si       0.83632    0.26902    0.75179    1.000
    N4991    N        0.83979    0.41081    0.82609    1.000
    Si4992   Si       0.83528    0.46664    0.76641    1.000
    N4993    N        0.83980    0.47659    0.80771    1.000
    Si4994   Si       0.84885    0.44976    0.84200    1.000
    N4995    N        0.81704    0.42666    0.75871    1.000
    N4996    N        0.84008    0.31697    0.89237    1.000
    N4997    N        0.85115    0.37204    0.97131    1.000
    Si4998   Si       0.86414    0.27130    0.96939    1.000
    Si4999   Si       0.85322    0.27428    0.88067    1.000
    N5000    N        0.85633    0.26314    0.92691    1.000
    N5001    N        0.86411    0.31074    0.98866    1.000
    N5002    N        0.85960    0.44057    0.98375    1.000
    N5003    N        0.81165    0.41471    0.93052    1.000
    N5004    N        0.83700    0.48737    0.93913    1.000
    N5005    N        0.83039    0.45872    0.87918    1.000
    Si5006   Si       0.83374    0.47598    0.98020    1.000
    Si5007   Si       0.85227    0.41206    0.95149    1.000
    Si5008   Si       0.86014    0.47080    0.90757    1.000
    N5009    N        0.84808    0.55735    0.05733    1.000
    Si5010   Si       0.82863    0.52078    0.03845    1.000
    Si5011   Si       0.82645    0.59164    0.03987    1.000
    N5012    N        0.84182    0.63191    0.03762    1.000
    N5013    N        0.83246    0.58869    0.99530    1.000
    N5014    N        0.84776    0.51073    0.00067    1.000
    N5015    N        0.83864    0.69757    0.03733    1.000
    N5016    N        0.86007    0.66616    0.09004    1.000
    Si5017   Si       0.82146    0.72299    0.00842    1.000
    Si5018   Si       0.82282    0.66393    0.06313    1.000
    Si5019   Si       0.83575    0.63340    0.99201    1.000
    Si5020   Si       0.86627    0.57891    0.15240    1.000
    N5021    N        0.83517    0.55835    0.23345    1.000
    N5022    N        0.82817    0.56821    0.16650    1.000
    N5023    N        0.85158    0.61578    0.13770    1.000
    N5024    N        0.87193    0.51125    0.19078    1.000
    N5025    N        0.81667    0.63046    0.19771    1.000
    Si5026   Si       0.81465    0.61024    0.15922    1.000
    N5027    N        0.83762    0.73395    0.14556    1.000
    N5028    N        0.86764    0.67385    0.16249    1.000
    Si5029   Si       0.83881    0.72630    0.22902    1.000
    N5030    N        0.81930    0.69877    0.20083    1.000
    Si5031   Si       0.84566    0.66456    0.19898    1.000
    Si5032   Si       0.87352    0.65055    0.12672    1.000
    Si5033   Si       0.82685    0.57194    0.27462    1.000
    N5034    N        0.84445    0.59594    0.30941    1.000
    Si5035   Si       0.83191    0.51797    0.31439    1.000
    N5036    N        0.86680    0.53700    0.29585    1.000
    Si5037   Si       0.86522    0.65087    0.33430    1.000
    N5038    N        0.83054    0.65763    0.30688    1.000
    N5039    N        0.85183    0.71107    0.26608    1.000
    Si5040   Si       0.84504    0.72833    0.35545    1.000
    N5041    N        0.86241    0.68868    0.35956    1.000
    Si5042   Si       0.81904    0.69748    0.29377    1.000
    N5043    N        0.84407    0.62803    0.37564    1.000
    N5044    N        0.82144    0.55825    0.39992    1.000
    Si5045   Si       0.85365    0.58728    0.39109    1.000
    Si5046   Si       0.83074    0.51561    0.39478    1.000
    Si5047   Si       0.86228    0.51721    0.46003    1.000
    N5048    N        0.86874    0.51598    0.41666    1.000
    Si5049   Si       0.85744    0.68312    0.45678    1.000
    Si5050   Si       0.83818    0.66817    0.39482    1.000
    N5051    N        0.82101    0.67331    0.43473    1.000
    N5052    N        0.86189    0.65201    0.48542    1.000
    N5053    N        0.83285    0.74430    0.39467    1.000
    N5054    N        0.85702    0.72655    0.45660    1.000
    Si5055   Si       0.82016    0.73208    0.47486    1.000
    Si5056   Si       0.86076    0.75965    0.42454    1.000
    N5057    N        0.83845    0.55362    0.53372    1.000
    N5058    N        0.85947    0.60309    0.59507    1.000
    Si5059   Si       0.86429    0.62285    0.55821    1.000
    Si5060   Si       0.82872    0.50987    0.53500    1.000
    N5061    N        0.82637    0.63386    0.54185    1.000
    Si5062   Si       0.82316    0.65354    0.50378    1.000
    Si5063   Si       0.82007    0.72044    0.60961    1.000
    N5064    N        0.86617    0.75131    0.54833    1.000
    Si5065   Si       0.82424    0.59787    0.62360    1.000
    Si5066   Si       0.82981    0.54742    0.67446    1.000
    N5067    N        0.84376    0.57817    0.70633    1.000
    Si5068   Si       0.83420    0.62061    0.69515    1.000
    N5069    N        0.82417    0.55348    0.63383    1.000
    N5070    N        0.86793    0.52723    0.67784    1.000
    Si5071   Si       0.85213    0.75811    0.70301    1.000
    N5072    N        0.86789    0.75099    0.74289    1.000
    Si5073   Si       0.85921    0.69181    0.66690    1.000
    N5074    N        0.85444    0.69639    0.62351    1.000
    N5075    N        0.83360    0.71807    0.69098    1.000
    N5076    N        0.86201    0.65054    0.67896    1.000
    N5077    N        0.81698    0.64306    0.72826    1.000
    N5078    N        0.84489    0.60341    0.77593    1.000
    N5079    N        0.82843    0.61941    0.85351    1.000
    N5080    N        0.85770    0.53611    0.76911    1.000
    Si5081   Si       0.84607    0.51953    0.80875    1.000
    Si5082   Si       0.81993    0.62104    0.81179    1.000
    Si5083   Si       0.83691    0.56818    0.75170    1.000
    Si5084   Si       0.86939    0.61605    0.85981    1.000
    N5085    N        0.84423    0.73015    0.80370    1.000
    N5086    N        0.83175    0.69454    0.85978    1.000
    Si5087   Si       0.84298    0.64734    0.76035    1.000
    N5088    N        0.82285    0.66215    0.79492    1.000
    Si5089   Si       0.82950    0.74781    0.76481    1.000
    Si5090   Si       0.81835    0.69877    0.81904    1.000
    Si5091   Si       0.86550    0.53543    0.87208    1.000
    N5092    N        0.82526    0.52940    0.88690    1.000
    Si5093   Si       0.82796    0.52890    0.92965    1.000
    N5094    N        0.82278    0.59683    0.92425    1.000
    Si5095   Si       0.86480    0.58654    0.92235    1.000
    N5096    N        0.86669    0.54649    0.93919    1.000
    N5097    N        0.83372    0.73044    0.96701    1.000
    Si5098   Si       0.84503    0.69147    0.94666    1.000
    N5099    N        0.86085    0.66553    0.97718    1.000
    N5100    N        0.83639    0.79170    0.09821    1.000
    Si5101   Si       0.85088    0.77064    0.06313    1.000
    N5102    N        0.81987    0.86103    0.10413    1.000
    Si5103   Si       0.86270    0.86334    0.11140    1.000
    N5104    N        0.81812    0.75866    0.03602    1.000
    N5105    N        0.82102    0.00790    0.01558    1.000
    Si5106   Si       0.85716    0.98801    0.01982    1.000
    N5107    N        0.85560    0.94605    0.01884    1.000
    Si5108   Si       0.82076    0.92255    0.01248    1.000
    Si5109   Si       0.85281    0.93335    0.11812    1.000
    N5110    N        0.87088    0.85882    0.15350    1.000
    Si5111   Si       0.86760    0.83003    0.18755    1.000
    N5112    N        0.82621    0.87532    0.22924    1.000
    N5113    N        0.83768    0.80409    0.16984    1.000
    N5114    N        0.86010    0.81973    0.23165    1.000
    Si5115   Si       0.84705    0.77559    0.13817    1.000
    Si5116   Si       0.82045    0.83420    0.24052    1.000
    N5117    N        0.84637    0.91829    0.16139    1.000
    Si5118   Si       0.86617    0.89240    0.24231    1.000
    N5119    N        0.82550    0.98954    0.23114    1.000
    Si5120   Si       0.85413    0.84703    0.30103    1.000
    N5121    N        0.84190    0.86797    0.33667    1.000
    Si5122   Si       0.82175    0.84262    0.36286    1.000
    N5123    N        0.81755    0.83519    0.28329    1.000
    N5124    N        0.85176    0.81040    0.37412    1.000
    Si5125   Si       0.85270    0.90842    0.33979    1.000
    N5126    N        0.84487    0.98762    0.29572    1.000
    N5127    N        0.82105    0.92999    0.31830    1.000
    Si5128   Si       0.85482    0.97081    0.25660    1.000
    N5129    N        0.84535    0.92756    0.24961    1.000
    N5130    N        0.82194    0.85790    0.40449    1.000
    Si5131   Si       0.84827    0.82414    0.41539    1.000
    N5132    N        0.83813    0.79206    0.44194    1.000
    N5133    N        0.82497    0.87416    0.48735    1.000
    Si5134   Si       0.82016    0.79677    0.48131    1.000
    N5135    N        0.84606    0.92268    0.38144    1.000
    Si5136   Si       0.82700    0.91654    0.47554    1.000
    Si5137   Si       0.83228    0.89863    0.41537    1.000
    Si5138   Si       0.84911    0.96709    0.38200    1.000
    N5139    N        0.85683    0.94923    0.48443    1.000
    N5140    N        0.85169    0.97578    0.42368    1.000
    N5141    N        0.86323    0.90488    0.44174    1.000
    N5142    N        0.85115    0.87152    0.55356    1.000
    Si5143   Si       0.84088    0.78374    0.53939    1.000
    N5144    N        0.82845    0.80357    0.57507    1.000
    Si5145   Si       0.85598    0.85599    0.51174    1.000
    N5146    N        0.84691    0.81540    0.51054    1.000
    Si5147   Si       0.83922    0.78795    0.61340    1.000
    Si5148   Si       0.81925    0.84683    0.56930    1.000
    N5149    N        0.81530    0.76130    0.50851    1.000
    N5150    N        0.83933    0.96317    0.54712    1.000
    Si5151   Si       0.82587    0.95949    0.59196    1.000
    Si5152   Si       0.85253    0.98474    0.50864    1.000
    N5153    N        0.81441    0.00132    0.59405    1.000
    Si5154   Si       0.86072    0.82199    0.67783    1.000
    N5155    N        0.83650    0.82195    0.64094    1.000
    N5156    N        0.83726    0.83257    0.71529    1.000
    Si5157   Si       0.84739    0.87611    0.70601    1.000
    N5158    N        0.81192    0.77623    0.70209    1.000
    Si5159   Si       0.86954    0.92523    0.74164    1.000
    N5160    N        0.83508    0.93695    0.62891    1.000
    N5161    N        0.84352    0.92315    0.70607    1.000
    N5162    N        0.84341    0.99812    0.66461    1.000
    Si5163   Si       0.81924    0.92643    0.66988    1.000
    N5164    N        0.83672    0.84034    0.81462    1.000
    N5165    N        0.85704    0.78003    0.84713    1.000
    Si5166   Si       0.86617    0.82303    0.84352    1.000
    Si5167   Si       0.81843    0.77605    0.86591    1.000
    Si5168   Si       0.84540    0.88031    0.79374    1.000
    N5169    N        0.81777    0.78969    0.76798    1.000
    N5170    N        0.86096    0.88465    0.75059    1.000
    Si5171   Si       0.85914    0.98623    0.79675    1.000
    N5172    N        0.85006    0.95181    0.77011    1.000
    N5173    N        0.86554    0.97176    0.83777    1.000
    Si5174   Si       0.82941    0.76483    0.94193    1.000
    Si5175   Si       0.86301    0.87115    0.96256    1.000
    N5176    N        0.83135    0.85695    0.93565    1.000
    Si5177   Si       0.84513    0.82636    0.90744    1.000
    N5178    N        0.86026    0.79063    0.92539    1.000
    N5179    N        0.82648    0.79160    0.98002    1.000
    Si5180   Si       0.86852    0.80164    0.99555    1.000
    N5181    N        0.86578    0.84923    0.87897    1.000
    N5182    N        0.83651    0.88756    0.99092    1.000
    Si5183   Si       0.85716    0.96710    0.88178    1.000
    Si5184   Si       0.86537    0.99326    0.94702    1.000
    N5185    N        0.81874    0.98485    0.88454    1.000
    N5186    N        0.86712    0.92327    0.87668    1.000
    N5187    N        0.83852    0.95949    0.94863    1.000
    N5188    N        0.90817    0.03874    0.10208    1.000
    N5189    N        0.91219    0.05218    0.03114    1.000
    Si5190   Si       0.88642    0.04908    0.06658    1.000
    Si5191   Si       0.91065    0.08868    0.00804    1.000
    N5192    N        0.88104    0.11884    0.01822    1.000
    N5193    N        0.87947    0.18939    0.01379    1.000
    N5194    N        0.89119    0.20027    0.08010    1.000
    Si5195   Si       0.91121    0.21940    0.00925    1.000
    N5196    N        0.90693    0.15174    0.12256    1.000
    Si5197   Si       0.88236    0.18892    0.11954    1.000
    Si5198   Si       0.93223    0.06798    0.12248    1.000
    N5199    N        0.93212    0.03599    0.20309    1.000
    N5200    N        0.87409    0.03897    0.23119    1.000
    Si5201   Si       0.88727    0.12371    0.14865    1.000
    N5202    N        0.91153    0.09351    0.22870    1.000
    N5203    N        0.91241    0.08904    0.15457    1.000
    Si5204   Si       0.87875    0.11878    0.21986    1.000
    Si5205   Si       0.89738    0.00957    0.21070    1.000
    N5206    N        0.88855    0.14627    0.18593    1.000
    Si5207   Si       0.90523    0.25473    0.21079    1.000
    N5208    N        0.89167    0.21229    0.20694    1.000
    N5209    N        0.88353    0.22598    0.14449    1.000
    Si5210   Si       0.91760    0.17808    0.19665    1.000
    N5211    N        0.89074    0.04721    0.29505    1.000
    Si5212   Si       0.90810    0.05542    0.25172    1.000
    Si5213   Si       0.87499    0.00863    0.31816    1.000
    Si5214   Si       0.93184    0.05494    0.31037    1.000
    N5215    N        0.93291    0.08448    0.34070    1.000
    Si5216   Si       0.87815    0.25194    0.35447    1.000
    N5217    N        0.89997    0.14450    0.33567    1.000
    Si5218   Si       0.89658    0.23668    0.28568    1.000
    Si5219   Si       0.91477    0.15882    0.26789    1.000
    N5220    N        0.90903    0.19551    0.29015    1.000
    Si5221   Si       0.90499    0.18845    0.33318    1.000
    N5222    N        0.90769    0.25777    0.32221    1.000
    N5223    N        0.91805    0.09200    0.40998    1.000
    N5224    N        0.89337    0.02985    0.43669    1.000
    Si5225   Si       0.91125    0.06751    0.44477    1.000
    Si5226   Si       0.87761    0.10971    0.41263    1.000
    N5227    N        0.87397    0.08958    0.45150    1.000
    Si5228   Si       0.91867    0.25203    0.42484    1.000
    N5229    N        0.88098    0.15250    0.41888    1.000
    Si5230   Si       0.90879    0.17782    0.43963    1.000
    N5231    N        0.87524    0.19044    0.46965    1.000
    N5232    N        0.90654    0.25245    0.46755    1.000
    N5233    N        0.92751    0.21087    0.41865    1.000
    Si5234   Si       0.88526    0.09976    0.53388    1.000
    N5235    N        0.91129    0.06759    0.54501    1.000
    Si5236   Si       0.91887    0.02387    0.53838    1.000
    N5237    N        0.92836    0.01768    0.58186    1.000
    N5238    N        0.92431    0.07675    0.61815    1.000
    N5239    N        0.89925    0.13724    0.51620    1.000
    N5240    N        0.89220    0.20848    0.53263    1.000
    Si5241   Si       0.87054    0.17286    0.51078    1.000
    N5242    N        0.88528    0.07277    0.67828    1.000
    Si5243   Si       0.89624    0.05179    0.71464    1.000
    Si5244   Si       0.89405    0.05444    0.64022    1.000
    N5245    N        0.90634    0.01394    0.64678    1.000
    Si5246   Si       0.88155    0.11613    0.74373    1.000
    N5247    N        0.89401    0.00674    0.71412    1.000
    Si5248   Si       0.90812    0.21256    0.66887    1.000
    Si5249   Si       0.92649    0.17378    0.73360    1.000
    N5250    N        0.91649    0.13278    0.72330    1.000
    N5251    N        0.89330    0.25470    0.68135    1.000
    N5252    N        0.87969    0.18048    0.67290    1.000
    N5253    N        0.90929    0.14903    0.62469    1.000
    N5254    N        0.88684    0.19080    0.74054    1.000
    N5255    N        0.89383    0.22227    0.62620    1.000
    N5256    N        0.91816    0.10004    0.78503    1.000
    Si5257   Si       0.88251    0.10579    0.80795    1.000
    N5258    N        0.89768    0.07119    0.85833    1.000
    N5259    N        0.92354    0.01002    0.85552    1.000
    N5260    N        0.87706    0.13136    0.84470    1.000
    Si5261   Si       0.87916    0.24368    0.82368    1.000
    Si5262   Si       0.88168    0.17431    0.85269    1.000
    N5263    N        0.88563    0.19660    0.81457    1.000
    N5264    N        0.92473    0.18783    0.86071    1.000
    N5265    N        0.92604    0.24192    0.81457    1.000
    N5266    N        0.87763    0.09639    0.91497    1.000
    Si5267   Si       0.90981    0.10660    0.94195    1.000
    N5268    N        0.89299    0.07653    0.96958    1.000
    N5269    N        0.88032    0.23817    0.87063    1.000
    N5270    N        0.90166    0.14720    0.95724    1.000
    Si5271   Si       0.92613    0.18070    0.94496    1.000
    Si5272   Si       0.91879    0.22150    0.88563    1.000
    Si5273   Si       0.87509    0.15405    0.99160    1.000
    N5274    N        0.90078    0.20812    0.92296    1.000
    N5275    N        0.88013    0.30841    0.05675    1.000
    Si5276   Si       0.89919    0.30008    0.01591    1.000
    Si5277   Si       0.91187    0.30480    0.08931    1.000
    N5278    N        0.91771    0.34106    0.00307    1.000
    N5279    N        0.88397    0.41077    0.03897    1.000
    N5280    N        0.89039    0.46549    0.08340    1.000
    Si5281   Si       0.91405    0.43627    0.06088    1.000
    Si5282   Si       0.91992    0.49680    0.09064    1.000
    Si5283   Si       0.89717    0.42539    0.00120    1.000
    N5284    N        0.92534    0.45032    0.02029    1.000
    N5285    N        0.87986    0.29277    0.12106    1.000
    N5286    N        0.91079    0.32702    0.22748    1.000
    N5287    N        0.88401    0.34038    0.16529    1.000
    Si5288   Si       0.92441    0.34737    0.15001    1.000
    Si5289   Si       0.90627    0.26208    0.13863    1.000
    Si5290   Si       0.87564    0.34577    0.20756    1.000
    N5291    N        0.93052    0.26323    0.17546    1.000
    N5292    N        0.92740    0.38914    0.16298    1.000
    Si5293   Si       0.91363    0.41294    0.19621    1.000
    Si5294   Si       0.88512    0.47536    0.20915    1.000
    N5295    N        0.91619    0.45545    0.18602    1.000
    N5296    N        0.87524    0.39101    0.20865    1.000
    N5297    N        0.92873    0.40935    0.23639    1.000
    Si5298   Si       0.90819    0.30585    0.26569    1.000
    N5299    N        0.90930    0.26329    0.25266    1.000
    N5300    N        0.87467    0.31328    0.29221    1.000
    N5301    N        0.89928    0.37994    0.28856    1.000
    N5302    N        0.91874    0.39270    0.35629    1.000
    N5303    N        0.88203    0.46008    0.32012    1.000
    Si5304   Si       0.92338    0.46954    0.33447    1.000
    Si5305   Si       0.88831    0.40095    0.25243    1.000
    N5306    N        0.88795    0.48423    0.25109    1.000
    Si5307   Si       0.92922    0.39715    0.31477    1.000
    Si5308   Si       0.88983    0.36354    0.37251    1.000
    N5309    N        0.91708    0.32883    0.37573    1.000
    N5310    N        0.88551    0.31757    0.44635    1.000
    N5311    N        0.88871    0.26395    0.39558    1.000
    Si5312   Si       0.92791    0.32053    0.44730    1.000
    Si5313   Si       0.87599    0.42189    0.42316    1.000
    N5314    N        0.87775    0.48953    0.49225    1.000
    N5315    N        0.92676    0.42795    0.49644    1.000
    N5316    N        0.91859    0.41891    0.42860    1.000
    N5317    N        0.88151    0.44594    0.38427    1.000
    Si5318   Si       0.92112    0.42546    0.38573    1.000
    Si5319   Si       0.90542    0.35480    0.57516    1.000
    Si5320   Si       0.92082    0.28424    0.55869    1.000
    N5321    N        0.87934    0.27702    0.54973    1.000
    N5322    N        0.92854    0.27543    0.59989    1.000
    N5323    N        0.90330    0.36596    0.49396    1.000
    Si5324   Si       0.90870    0.49856    0.52189    1.000
    N5325    N        0.91480    0.38988    0.55623    1.000
    Si5326   Si       0.90055    0.40356    0.51881    1.000
    N5327    N        0.90389    0.47122    0.55503    1.000
    Si5328   Si       0.91750    0.47313    0.59533    1.000
    N5329    N        0.91935    0.34927    0.61559    1.000
    N5330    N        0.91136    0.36000    0.68879    1.000
    Si5331   Si       0.89230    0.35399    0.64999    1.000
    Si5332   Si       0.88906    0.37650    0.72170    1.000
    N5333    N        0.88156    0.47757    0.61966    1.000
    Si5334   Si       0.90159    0.45194    0.72074    1.000
    Si5335   Si       0.88932    0.48994    0.66050    1.000
    N5336    N        0.88097    0.45171    0.68120    1.000
    N5337    N        0.91158    0.41147    0.73527    1.000
    Si5338   Si       0.88717    0.31434    0.83009    1.000
    N5339    N        0.91906    0.30953    0.80163    1.000
    N5340    N        0.88595    0.34713    0.75411    1.000
    Si5341   Si       0.92814    0.33847    0.76959    1.000
    N5342    N        0.89058    0.44775    0.85500    1.000
    Si5343   Si       0.90715    0.48925    0.85427    1.000
    N5344    N        0.87257    0.47585    0.74572    1.000
    N5345    N        0.90521    0.31903    0.87012    1.000
    N5346    N        0.90432    0.33671    0.93543    1.000
    Si5347   Si       0.89240    0.35504    0.97194    1.000
    Si5348   Si       0.88014    0.33885    0.89919    1.000
    N5349    N        0.87348    0.37772    0.88091    1.000
    N5350    N        0.89908    0.25955    0.99548    1.000
    N5351    N        0.90932    0.39667    0.96978    1.000
    N5352    N        0.90807    0.50212    0.96371    1.000
    N5353    N        0.89008    0.49945    0.89425    1.000
    Si5354   Si       0.89476    0.41492    0.88508    1.000
    N5355    N        0.87873    0.43266    0.92051    1.000
    N5356    N        0.89976    0.60234    0.07093    1.000
    N5357    N        0.91487    0.52997    0.06257    1.000
    Si5358   Si       0.88658    0.56087    0.07755    1.000
    N5359    N        0.89882    0.62334    0.00555    1.000
    N5360    N        0.90771    0.55842    0.99567    1.000
    Si5361   Si       0.88506    0.63390    0.04642    1.000
    N5362    N        0.90428    0.67352    0.04072    1.000
    Si5363   Si       0.90305    0.75048    0.10679    1.000
    Si5364   Si       0.87361    0.69789    0.06242    1.000
    N5365    N        0.87674    0.73831    0.07627    1.000
    Si5366   Si       0.90428    0.66907    0.99591    1.000
    N5367    N        0.91595    0.64285    0.12232    1.000
    N5368    N        0.88884    0.55939    0.12019    1.000
    N5369    N        0.89434    0.57431    0.18526    1.000
    N5370    N        0.90826    0.54735    0.24078    1.000
    Si5371   Si       0.92574    0.55156    0.14538    1.000
    Si5372   Si       0.87488    0.54779    0.21505    1.000
    Si5373   Si       0.91960    0.65829    0.21809    1.000
    N5374    N        0.91023    0.71437    0.13232    1.000
    N5375    N        0.87806    0.72956    0.20370    1.000
    Si5376   Si       0.91347    0.73397    0.22752    1.000
    Si5377   Si       0.87649    0.71725    0.16126    1.000
    N5378    N        0.87534    0.65671    0.22900    1.000
    Si5379   Si       0.88013    0.57708    0.32172    1.000
    Si5380   Si       0.90247    0.52043    0.27392    1.000
    N5381    N        0.89745    0.62205    0.33281    1.000
    N5382    N        0.88014    0.56385    0.36331    1.000
    N5383    N        0.92525    0.56998    0.31530    1.000
    N5384    N        0.91909    0.50776    0.35832    1.000
    Si5385   Si       0.90165    0.71234    0.33787    1.000
    N5386    N        0.89646    0.68004    0.30557    1.000
    Si5387   Si       0.88223    0.68040    0.26510    1.000
    N5388    N        0.87863    0.75194    0.34309    1.000
    N5389    N        0.92224    0.69297    0.24767    1.000
    Si5390   Si       0.90905    0.57586    0.45006    1.000
    N5391    N        0.92121    0.61898    0.46433    1.000
    Si5392   Si       0.89985    0.53297    0.38718    1.000
    N5393    N        0.87998    0.55498    0.47640    1.000
    N5394    N        0.88180    0.59625    0.42342    1.000
    N5395    N        0.92411    0.54831    0.41731    1.000
    Si5396   Si       0.90141    0.63337    0.42670    1.000
    N5397    N        0.87983    0.67090    0.42101    1.000
    N5398    N        0.92790    0.71097    0.37300    1.000
    Si5399   Si       0.92028    0.69096    0.40937    1.000
    Si5400   Si       0.93013    0.75382    0.45211    1.000
    N5401    N        0.90453    0.53794    0.54174    1.000
    N5402    N        0.88812    0.60437    0.52719    1.000
    Si5403   Si       0.87764    0.56390    0.51896    1.000
    Si5404   Si       0.89857    0.60337    0.61542    1.000
    N5405    N        0.88895    0.65554    0.56784    1.000
    N5406    N        0.91315    0.71136    0.58299    1.000
    Si5407   Si       0.88952    0.67854    0.60566    1.000
    Si5408   Si       0.89729    0.75124    0.57489    1.000
    N5409    N        0.92729    0.67095    0.51019    1.000
    Si5410   Si       0.92245    0.68146    0.55324    1.000
    Si5411   Si       0.90115    0.63564    0.49818    1.000
    N5412    N        0.88812    0.58924    0.65391    1.000
    N5413    N        0.90356    0.60312    0.70971    1.000
    Si5414   Si       0.88628    0.56588    0.69152    1.000
    N5415    N        0.91335    0.54369    0.72310    1.000
    Si5416   Si       0.90087    0.63093    0.67263    1.000
    Si5417   Si       0.92702    0.69890    0.69359    1.000
    N5418    N        0.92281    0.70853    0.73699    1.000
    N5419    N        0.90759    0.64466    0.62743    1.000
    N5420    N        0.89539    0.71784    0.67143    1.000
    N5421    N        0.89358    0.61075    0.82482    1.000
    Si5422   Si       0.88630    0.61081    0.78211    1.000
    Si5423   Si       0.89105    0.51666    0.75077    1.000
    N5424    N        0.92290    0.58700    0.77791    1.000
    N5425    N        0.88277    0.52036    0.83598    1.000
    N5426    N        0.92288    0.50669    0.78029    1.000
    N5427    N        0.88695    0.65106    0.76310    1.000
    N5428    N        0.89939    0.71834    0.85046    1.000
    Si5429   Si       0.92218    0.67460    0.76207    1.000
    Si5430   Si       0.87830    0.74814    0.82476    1.000
    Si5431   Si       0.91098    0.74846    0.75165    1.000
    N5432    N        0.91542    0.75656    0.80106    1.000
    N5433    N        0.87258    0.57770    0.88087    1.000
    Si5434   Si       0.91479    0.59567    0.97558    1.000
    N5435    N        0.89735    0.61119    0.93829    1.000
    Si5436   Si       0.90419    0.52305    0.92711    1.000
    Si5437   Si       0.87863    0.53120    0.97965    1.000
    N5438    N        0.87382    0.70068    0.91608    1.000
    Si5439   Si       0.87301    0.68827    0.87421    1.000
    Si5440   Si       0.91218    0.70739    0.93375    1.000
    N5441    N        0.90878    0.70978    0.97899    1.000
    N5442    N        0.92554    0.74623    0.92260    1.000
    Si5443   Si       0.91787    0.63806    0.91164    1.000
    Si5444   Si       0.92777    0.74875    0.99323    1.000
    N5445    N        0.88900    0.64843    0.88001    1.000
    N5446    N        0.89359    0.84740    0.08287    1.000
    Si5447   Si       0.90923    0.81346    0.06323    1.000
    Si5448   Si       0.92175    0.85619    0.00272    1.000
    N5449    N        0.87474    0.79740    0.03876    1.000
    N5450    N        0.92719    0.77924    0.08042    1.000
    Si5451   Si       0.90410    0.88789    0.06704    1.000
    N5452    N        0.90188    0.89115    0.02358    1.000
    Si5453   Si       0.89940    0.99703    0.09213    1.000
    Si5454   Si       0.89538    0.93051    0.00600    1.000
    N5455    N        0.91885    0.96250    0.02640    1.000
    N5456    N        0.87842    0.96854    0.11663    1.000
    N5457    N        0.87021    0.90216    0.09602    1.000
    N5458    N        0.88014    0.00769    0.05533    1.000
    Si5459   Si       0.91457    0.00787    0.01726    1.000
    Si5460   Si       0.92579    0.78494    0.16865    1.000
    Si5461   Si       0.92383    0.84917    0.21726    1.000
    N5462    N        0.90999    0.81950    0.18879    1.000
    N5463    N        0.89284    0.77493    0.14101    1.000
    N5464    N        0.89323    0.88027    0.21199    1.000
    Si5465   Si       0.88376    0.89717    0.17175    1.000
    Si5466   Si       0.89865    0.97087    0.15375    1.000
    N5467    N        0.91118    0.92902    0.16265    1.000
    N5468    N        0.89469    0.97892    0.24069    1.000
    N5469    N        0.87583    0.99940    0.17373    1.000
    Si5470   Si       0.88739    0.80301    0.26184    1.000
    Si5471   Si       0.88401    0.79557    0.34727    1.000
    N5472    N        0.87798    0.81281    0.30629    1.000
    N5473    N        0.90649    0.76291    0.26016    1.000
    N5474    N        0.92424    0.82863    0.25533    1.000
    N5475    N        0.88136    0.87586    0.27929    1.000
    Si5476   Si       0.91138    0.95981    0.34132    1.000
    Si5477   Si       0.91406    0.89924    0.29843    1.000
    N5478    N        0.89488    0.92225    0.33085    1.000
    N5479    N        0.91121    0.98075    0.30382    1.000
    N5480    N        0.87915    0.98553    0.35715    1.000
    Si5481   Si       0.92959    0.96423    0.26567    1.000
    N5482    N        0.91801    0.80854    0.37160    1.000
    Si5483   Si       0.89550    0.87492    0.45114    1.000
    N5484    N        0.90183    0.77349    0.42756    1.000
    N5485    N        0.88593    0.84197    0.42560    1.000
    Si5486   Si       0.91653    0.81337    0.41403    1.000
    N5487    N        0.89511    0.86623    0.49302    1.000
    Si5488   Si       0.87748    0.94883    0.44638    1.000
    N5489    N        0.91410    0.96364    0.42885    1.000
    Si5490   Si       0.92333    0.00670    0.41725    1.000
    N5491    N        0.91884    0.85273    0.55926    1.000
    N5492    N        0.87868    0.76699    0.61206    1.000
    N5493    N        0.92465    0.78587    0.56008    1.000
    Si5494   Si       0.89086    0.88595    0.56762    1.000
    N5495    N        0.88586    0.96548    0.59709    1.000
    N5496    N        0.90270    0.92053    0.54283    1.000
    N5497    N        0.88752    0.89639    0.60930    1.000
    N5498    N        0.88997    0.99474    0.53044    1.000
    Si5499   Si       0.88718    0.95930    0.55503    1.000
    Si5500   Si       0.91951    0.98923    0.61393    1.000
    N5501    N        0.91455    0.83332    0.62373    1.000
    N5502    N        0.87759    0.86180    0.67781    1.000
    Si5503   Si       0.90178    0.87079    0.64115    1.000
    N5504    N        0.87814    0.78286    0.67991    1.000
    Si5505   Si       0.89520    0.75600    0.64903    1.000
    Si5506   Si       0.87636    0.93521    0.62886    1.000
    Si5507   Si       0.91594    0.98726    0.74415    1.000
    N5508    N        0.91035    0.94160    0.73985    1.000
    Si5509   Si       0.88445    0.98991    0.67563    1.000
    N5510    N        0.89605    0.95008    0.66504    1.000
    N5511    N        0.90376    0.82860    0.82560    1.000
    Si5512   Si       0.91008    0.87067    0.82454    1.000
    Si5513   Si       0.93121    0.79693    0.81114    1.000
    N5514    N        0.92278    0.88590    0.86445    1.000
    N5515    N        0.90342    0.99544    0.78624    1.000
    Si5516   Si       0.88572    0.93272    0.83748    1.000
    N5517    N        0.87790    0.89745    0.81533    1.000
    N5518    N        0.92692    0.94640    0.82547    1.000
    Si5519   Si       0.92968    0.98802    0.81836    1.000
    Si5520   Si       0.90412    0.78365    0.93502    1.000
    N5521    N        0.89989    0.77754    0.97759    1.000
    N5522    N        0.88639    0.84060    0.98345    1.000
    N5523    N        0.92207    0.81351    0.91264    1.000
    N5524    N        0.89160    0.89030    0.93397    1.000
    N5525    N        0.88263    0.00216    0.98613    1.000
    Si5526   Si       0.92811    0.99584    0.89589    1.000
    N5527    N        0.92596    0.93102    0.97384    1.000
    Si5528   Si       0.88718    0.88633    0.89053    1.000
    N5529    N        0.88832    0.98146    0.91116    1.000
    N5530    N        0.94642    0.09493    0.09055    1.000
    N5531    N        0.95075    0.11205    0.00479    1.000
    Si5532   Si       0.98480    0.08386    0.06958    1.000
    Si5533   Si       0.99041    0.08821    0.00303    1.000
    Si5534   Si       0.99173    0.02690    0.00269    1.000
    N5535    N        0.98773    0.05673    0.03339    1.000
    N5536    N        0.97978    0.14240    0.12550    1.000
    Si5537   Si       0.94289    0.13635    0.10234    1.000
    Si5538   Si       0.97350    0.25395    0.10905    1.000
    N5539    N        0.94407    0.16111    0.06544    1.000
    Si5540   Si       0.96378    0.14439    0.02993    1.000
    N5541    N        0.96288    0.20948    0.10845    1.000
    N5542    N        0.93681    0.22774    0.04358    1.000
    Si5543   Si       0.93464    0.20006    0.07678    1.000
    Si5544   Si       0.95905    0.01697    0.17547    1.000
    N5545    N        0.97023    0.09771    0.20951    1.000
    N5546    N        0.96382    0.05240    0.14900    1.000
    Si5547   Si       0.93399    0.07883    0.19418    1.000
    Si5548   Si       0.97800    0.18043    0.24073    1.000
    N5549    N        0.99107    0.21849    0.22651    1.000
    Si5550   Si       0.97949    0.18539    0.13939    1.000
    N5551    N        0.93831    0.16701    0.23193    1.000
    N5552    N        0.94942    0.18686    0.17017    1.000
    N5553    N        0.96374    0.02612    0.32030    1.000
    Si5554   Si       0.97613    0.02367    0.27838    1.000
    N5555    N        0.94837    0.05723    0.26809    1.000
    Si5556   Si       0.95585    0.09939    0.25356    1.000
    Si5557   Si       0.93594    0.12404    0.32626    1.000
    N5558    N        0.93434    0.12356    0.28411    1.000
    N5559    N        0.97981    0.13382    0.33840    1.000
    Si5560   Si       0.99079    0.25441    0.25131    1.000
    Si5561   Si       0.97203    0.20857    0.31245    1.000
    N5562    N        0.96691    0.24574    0.28950    1.000
    N5563    N        0.94591    0.19835    0.34592    1.000
    N5564    N        0.98301    0.17881    0.28296    1.000
    N5565    N        0.93873    0.03034    0.38192    1.000
    N5566    N        0.94745    0.07217    0.46804    1.000
    Si5567   Si       0.94560    0.07449    0.38157    1.000
    Si5568   Si       0.97389    0.03606    0.47331    1.000
    Si5569   Si       0.97707    0.09654    0.48716    1.000
    N5570    N        0.98424    0.09154    0.39016    1.000
    Si5571   Si       0.99590    0.13283    0.37894    1.000
    Si5572   Si       0.98665    0.21242    0.49154    1.000
    N5573    N        0.97493    0.25271    0.47411    1.000
    N5574    N        0.96947    0.15747    0.40202    1.000
    N5575    N        0.99397    0.22165    0.39196    1.000
    Si5576   Si       0.97918    0.15510    0.44430    1.000
    N5577    N        0.94054    0.15854    0.46314    1.000
    Si5578   Si       0.95848    0.19874    0.38757    1.000
    N5579    N        0.98050    0.05638    0.57281    1.000
    N5580    N        0.96904    0.12341    0.52136    1.000
    N5581    N        0.94600    0.01950    0.50648    1.000
    Si5582   Si       0.93918    0.06041    0.58222    1.000
    N5583    N        0.96190    0.12990    0.59309    1.000
    Si5584   Si       0.99104    0.13007    0.55938    1.000
    N5585    N        0.95603    0.19247    0.51453    1.000
    N5586    N        0.94742    0.20631    0.58298    1.000
    Si5587   Si       0.97053    0.17350    0.59907    1.000
    Si5588   Si       0.93747    0.15382    0.50491    1.000
    Si5589   Si       0.93504    0.21548    0.54359    1.000
    N5590    N        0.94583    0.25728    0.53595    1.000
    Si5591   Si       0.93193    0.23384    0.61210    1.000
    N5592    N        0.98240    0.11617    0.73517    1.000
    Si5593   Si       0.93872    0.11758    0.62706    1.000
    N5594    N        0.93656    0.06617    0.71804    1.000
    Si5595   Si       0.94989    0.10730    0.70625    1.000
    N5596    N        0.96091    0.11639    0.66451    1.000
    Si5597   Si       0.96760    0.03954    0.73745    1.000
    N5598    N        0.94020    0.19196    0.69726    1.000
    Si5599   Si       0.97436    0.20551    0.67302    1.000
    N5600    N        0.94899    0.23447    0.65373    1.000
    N5601    N        0.98300    0.17819    0.64001    1.000
    N5602    N        0.96894    0.06491    0.84353    1.000
    Si5603   Si       0.96089    0.10087    0.77051    1.000
    N5604    N        0.97696    0.05961    0.77378    1.000
    Si5605   Si       0.98070    0.10786    0.84259    1.000
    N5606    N        0.97794    0.12487    0.80280    1.000
    Si5607   Si       0.98693    0.03976    0.81161    1.000
    Si5608   Si       0.93527    0.05117    0.86534    1.000
    N5609    N        0.96197    0.13422    0.86861    1.000
    N5610    N        0.97462    0.19029    0.82452    1.000
    N5611    N        0.94240    0.17630    0.77313    1.000
    Si5612   Si       0.96840    0.17689    0.86503    1.000
    Si5613   Si       0.98481    0.16574    0.78923    1.000
    Si5614   Si       0.93337    0.19884    0.81287    1.000
    N5615    N        0.94971    0.10153    0.92964    1.000
    Si5616   Si       0.96995    0.06452    0.93264    1.000
    N5617    N        0.95184    0.03445    0.90575    1.000
    N5618    N        0.95859    0.17257    0.92067    1.000
    Si5619   Si       0.97235    0.13433    0.91272    1.000
    Si5620   Si       0.98202    0.20985    0.99190    1.000
    N5621    N        0.93956    0.19884    0.98319    1.000
    N5622    N        0.95962    0.23777    0.89508    1.000
    N5623    N        0.94074    0.29711    0.03759    1.000
    Si5624   Si       0.95969    0.36907    0.08780    1.000
    Si5625   Si       0.95687    0.33392    0.01949    1.000
    N5626    N        0.98071    0.35263    0.05121    1.000
    N5627    N        0.93556    0.27302    0.10715    1.000
    N5628    N        0.92806    0.34264    0.10444    1.000
    Si5629   Si       0.96253    0.26084    0.04079    1.000
    Si5630   Si       0.96267    0.46919    0.03221    1.000
    N5631    N        0.95379    0.47068    0.07479    1.000
    Si5632   Si       0.97228    0.43793    0.09586    1.000
    N5633    N        0.94364    0.40856    0.07835    1.000
    N5634    N        0.95775    0.50625    0.01122    1.000
    N5635    N        0.98411    0.38058    0.12320    1.000
    N5636    N        0.97640    0.28640    0.22098    1.000
    N5637    N        0.95459    0.32548    0.17311    1.000
    Si5638   Si       0.95514    0.32599    0.21760    1.000
    Si5639   Si       0.97077    0.28411    0.17521    1.000
    N5640    N        0.97357    0.35465    0.24055    1.000
    N5641    N        0.98481    0.40787    0.19472    1.000
    Si5642   Si       0.96975    0.39958    0.23502    1.000
    N5643    N        0.96384    0.44411    0.13628    1.000
    Si5644   Si       0.94246    0.47554    0.15753    1.000
    N5645    N        0.97760    0.49171    0.17892    1.000
    Si5646   Si       0.96846    0.40376    0.15487    1.000
    N5647    N        0.92897    0.50741    0.13279    1.000
    N5648    N        0.94379    0.31303    0.29025    1.000
    N5649    N        0.96624    0.27410    0.35023    1.000
    Si5650   Si       0.94532    0.27557    0.31214    1.000
    Si5651   Si       0.97505    0.34185    0.28297    1.000
    N5652    N        0.96790    0.37856    0.30726    1.000
    Si5653   Si       0.96155    0.47335    0.28507    1.000
    N5654    N        0.94355    0.43811    0.30339    1.000
    N5655    N        0.93337    0.50191    0.30087    1.000
    N5656    N        0.97869    0.49229    0.24974    1.000
    N5657    N        0.94794    0.45112    0.36631    1.000
    Si5658   Si       0.98689    0.42101    0.30775    1.000
    N5659    N        0.94511    0.35937    0.44074    1.000
    Si5660   Si       0.95105    0.30191    0.38150    1.000
    N5661    N        0.94713    0.28508    0.42327    1.000
    Si5662   Si       0.98658    0.28314    0.44680    1.000
    Si5663   Si       0.98409    0.34939    0.42633    1.000
    N5664    N        0.93630    0.30774    0.48782    1.000
    N5665    N        0.98696    0.32101    0.39331    1.000
    Si5666   Si       0.93756    0.26534    0.49268    1.000
    Si5667   Si       0.93688    0.39968    0.46185    1.000
    N5668    N        0.97983    0.40405    0.46829    1.000
    N5669    N        0.97604    0.35662    0.51790    1.000
    Si5670   Si       0.97906    0.33557    0.56189    1.000
    N5671    N        0.98137    0.31610    0.60145    1.000
    N5672    N        0.98162    0.37807    0.58111    1.000
    Si5673   Si       0.93499    0.34275    0.51184    1.000
    N5674    N        0.93359    0.32604    0.55456    1.000
    Si5675   Si       0.95404    0.40948    0.56785    1.000
    N5676    N        0.94451    0.43847    0.60063    1.000
    N5677    N        0.97660    0.42769    0.53552    1.000
    N5678    N        0.94774    0.49467    0.50155    1.000
    Si5679   Si       0.96203    0.45374    0.50324    1.000
    Si5680   Si       0.94235    0.31379    0.61969    1.000
    N5681    N        0.95130    0.32442    0.73717    1.000
    Si5682   Si       0.93429    0.26843    0.67892    1.000
    N5683    N        0.96292    0.26570    0.71208    1.000
    Si5684   Si       0.94590    0.33449    0.69414    1.000
    N5685    N        0.93622    0.30669    0.66144    1.000
    Si5686   Si       0.97915    0.29061    0.74506    1.000
    N5687    N        0.98252    0.35382    0.68418    1.000
    N5688    N        0.97838    0.41120    0.72776    1.000
    N5689    N        0.98165    0.41997    0.65770    1.000
    Si5690   Si       0.97975    0.44431    0.62342    1.000
    N5691    N        0.93429    0.48136    0.72261    1.000
    Si5692   Si       0.94767    0.27737    0.81024    1.000
    N5693    N        0.96700    0.28831    0.84676    1.000
    Si5694   Si       0.97562    0.37222    0.82188    1.000
    N5695    N        0.95797    0.35751    0.85977    1.000
    N5696    N        0.94722    0.37521    0.78798    1.000
    N5697    N        0.98267    0.28002    0.78591    1.000
    Si5698   Si       0.94845    0.40988    0.75914    1.000
    Si5699   Si       0.95401    0.48532    0.76085    1.000
    N5700    N        0.95954    0.44673    0.77966    1.000
    N5701    N        0.94946    0.49426    0.84530    1.000
    Si5702   Si       0.94713    0.31826    0.86933    1.000
    Si5703   Si       0.98699    0.27395    0.88657    1.000
    N5704    N        0.96523    0.30641    0.90902    1.000
    N5705    N        0.96431    0.37158    0.93839    1.000
    Si5706   Si       0.94792    0.32956    0.94266    1.000
    N5707    N        0.97684    0.32386    0.97972    1.000
    Si5708   Si       0.96701    0.38217    0.89405    1.000
    N5709    N        0.93555    0.41156    0.89704    1.000
    Si5710   Si       0.94660    0.48788    0.97275    1.000
    Si5711   Si       0.93863    0.40961    0.94177    1.000
    N5712    N        0.98088    0.50049    0.94686    1.000
    N5713    N        0.95470    0.44585    0.95641    1.000
    N5714    N        0.97319    0.56420    0.02985    1.000
    N5715    N        0.96766    0.62435    0.07670    1.000
    Si5716   Si       0.93266    0.61070    0.09727    1.000
    Si5717   Si       0.93502    0.54034    0.02462    1.000
    N5718    N        0.94619    0.73417    0.03098    1.000
    Si5719   Si       0.94983    0.68906    0.03598    1.000
    N5720    N        0.95093    0.66417    0.00048    1.000
    N5721    N        0.98695    0.74685    0.09049    1.000
    N5722    N        0.97293    0.67905    0.12040    1.000
    N5723    N        0.95170    0.57619    0.11958    1.000
    Si5724   Si       0.93120    0.57557    0.21502    1.000
    N5725    N        0.95293    0.55362    0.18223    1.000
    N5726    N        0.93680    0.61973    0.22874    1.000
    N5727    N        0.97111    0.56857    0.24650    1.000
    N5728    N        0.93570    0.67398    0.18127    1.000
    Si5729   Si       0.98455    0.75777    0.20237    1.000
    N5730    N        0.94119    0.75500    0.20109    1.000
    Si5731   Si       0.93378    0.67762    0.14058    1.000
    Si5732   Si       0.94080    0.53328    0.32924    1.000
    N5733    N        0.96870    0.60370    0.35858    1.000
    Si5734   Si       0.93770    0.60796    0.32675    1.000
    Si5735   Si       0.96649    0.61068    0.25886    1.000
    N5736    N        0.98307    0.53891    0.33353    1.000
    N5737    N        0.95707    0.62999    0.29550    1.000
    Si5738   Si       0.96263    0.72870    0.35380    1.000
    N5739    N        0.93787    0.72913    0.31609    1.000
    Si5740   Si       0.94035    0.69096    0.28809    1.000
    N5741    N        0.98407    0.69164    0.28169    1.000
    N5742    N        0.98012    0.51243    0.43697    1.000
    Si5743   Si       0.96983    0.62802    0.39536    1.000
    Si5744   Si       0.96635    0.55529    0.42532    1.000
    N5745    N        0.95369    0.56073    0.47164    1.000
    Si5746   Si       0.96811    0.60110    0.47263    1.000
    N5747    N        0.97012    0.59841    0.42740    1.000
    Si5748   Si       0.97166    0.51994    0.47808    1.000
    N5749    N        0.93202    0.71151    0.44462    1.000
    N5750    N        0.93469    0.65002    0.40375    1.000
    Si5751   Si       0.94236    0.70562    0.48576    1.000
    N5752    N        0.98438    0.69247    0.48926    1.000
    N5753    N        0.93262    0.74630    0.49779    1.000
    N5754    N        0.97069    0.61616    0.51450    1.000
    N5755    N        0.97342    0.55410    0.55157    1.000
    Si5756   Si       0.96935    0.58856    0.61558    1.000
    Si5757   Si       0.93539    0.54491    0.56953    1.000
    N5758    N        0.94137    0.51107    0.59444    1.000
    N5759    N        0.93067    0.57739    0.59870    1.000
    N5760    N        0.96474    0.67074    0.56152    1.000
    Si5761   Si       0.97855    0.65957    0.51940    1.000
    N5762    N        0.96410    0.60378    0.65593    1.000
    Si5763   Si       0.94288    0.51746    0.70096    1.000
    N5764    N        0.97152    0.59367    0.72740    1.000
    N5765    N        0.98153    0.53632    0.69961    1.000
    Si5766   Si       0.96228    0.51737    0.63145    1.000
    Si5767   Si       0.98461    0.57981    0.68823    1.000
    Si5768   Si       0.93154    0.58273    0.73632    1.000
    N5769    N        0.92999    0.50578    0.66157    1.000
    Si5770   Si       0.95835    0.75779    0.68487    1.000
    Si5771   Si       0.96771    0.64532    0.66846    1.000
    N5772    N        0.93125    0.65744    0.68581    1.000
    N5773    N        0.96666    0.71623    0.68086    1.000
    N5774    N        0.96173    0.55930    0.82513    1.000
    Si5775   Si       0.95279    0.51947    0.80954    1.000
    Si5776   Si       0.93537    0.59370    0.81858    1.000
    Si5777   Si       0.98120    0.62704    0.86738    1.000
    N5778    N        0.96027    0.62664    0.82762    1.000
    N5779    N        0.98669    0.50668    0.78405    1.000
    N5780    N        0.96011    0.65336    0.75776    1.000
    Si5781   Si       0.96759    0.65985    0.80029    1.000
    N5782    N        0.97551    0.72702    0.84721    1.000
    N5783    N        0.93506    0.68659    0.80186    1.000
    Si5784   Si       0.93763    0.72353    0.82605    1.000
    N5785    N        0.95677    0.60209    0.96515    1.000
    Si5786   Si       0.96442    0.58207    0.92587    1.000
    N5787    N        0.95386    0.61510    0.89853    1.000
    N5788    N        0.93471    0.55088    0.92141    1.000
    Si5789   Si       0.97700    0.63523    0.98221    1.000
    Si5790   Si       0.96557    0.75704    0.92922    1.000
    N5791    N        0.93610    0.67514    0.92307    1.000
    Si5792   Si       0.98055    0.67864    0.92093    1.000
    N5793    N        0.93924    0.83246    0.03714    1.000
    Si5794   Si       0.98277    0.82885    0.04496    1.000
    Si5795   Si       0.96328    0.76543    0.05886    1.000
    N5796    N        0.98856    0.78808    0.03172    1.000
    N5797    N        0.93829    0.91154    0.07615    1.000
    Si5798   Si       0.97173    0.90275    0.10379    1.000
    Si5799   Si       0.94437    0.95058    0.05872    1.000
    N5800    N        0.94035    0.98231    0.08758    1.000
    N5801    N        0.97978    0.94906    0.03367    1.000
    N5802    N        0.95669    0.87143    0.12790    1.000
    N5803    N        0.96304    0.86699    0.21208    1.000
    Si5804   Si       0.97640    0.83366    0.12810    1.000
    N5805    N        0.96137    0.79556    0.14473    1.000
    N5806    N        0.97265    0.93732    0.12892    1.000
    Si5807   Si       0.96793    0.97913    0.11934    1.000
    N5808    N        0.97309    0.93968    0.20546    1.000
    Si5809   Si       0.95382    0.93994    0.16666    1.000
    N5810    N        0.94208    0.98374    0.15501    1.000
    Si5811   Si       0.96526    0.90534    0.23439    1.000
    Si5812   Si       0.95744    0.79929    0.35725    1.000
    Si5813   Si       0.97389    0.87047    0.34764    1.000
    N5814    N        0.94856    0.80044    0.31426    1.000
    Si5815   Si       0.94727    0.83467    0.29073    1.000
    N5816    N        0.94059    0.86905    0.31632    1.000
    Si5817   Si       0.93837    0.76419    0.29293    1.000
    N5818    N        0.97883    0.76396    0.27222    1.000
    N5819    N        0.98921    0.83067    0.36154    1.000
    N5820    N        0.98985    0.83680    0.27721    1.000
    N5821    N        0.95051    0.96332    0.35963    1.000
    N5822    N        0.96678    0.98687    0.25938    1.000
    Si5823   Si       0.96566    0.00722    0.35777    1.000
    N5824    N        0.93586    0.92052    0.26704    1.000
    N5825    N        0.97548    0.76345    0.37832    1.000
    Si5826   Si       0.97171    0.81450    0.46522    1.000
    N5827    N        0.96767    0.77447    0.44702    1.000
    N5828    N        0.95250    0.83373    0.42883    1.000
    Si5829   Si       0.96457    0.87727    0.41976    1.000
    N5830    N        0.94337    0.94829    0.48611    1.000
    N5831    N        0.98484    0.94632    0.42424    1.000
    N5832    N        0.96785    0.89698    0.38029    1.000
    Si5833   Si       0.94680    0.93880    0.44308    1.000
    N5834    N        0.93319    0.89761    0.44077    1.000
    Si5835   Si       0.98040    0.93903    0.37963    1.000
    N5836    N        0.96041    0.01161    0.43870    1.000
    Si5837   Si       0.94626    0.77918    0.52246    1.000
    N5838    N        0.97112    0.80874    0.60814    1.000
    N5839    N        0.94786    0.81722    0.50160    1.000
    Si5840   Si       0.93117    0.85392    0.51701    1.000
    Si5841   Si       0.93175    0.82014    0.58587    1.000
    N5842    N        0.96308    0.88656    0.51803    1.000
    Si5843   Si       0.94133    0.92367    0.52536    1.000
    N5844    N        0.96004    0.95782    0.54323    1.000
    Si5845   Si       0.96324    0.98154    0.50438    1.000
    N5846    N        0.94074    0.76828    0.72433    1.000
    Si5847   Si       0.94788    0.81168    0.64549    1.000
    N5848    N        0.95928    0.83215    0.68068    1.000
    Si5849   Si       0.96194    0.87416    0.68886    1.000
    N5850    N        0.93687    0.77138    0.65058    1.000
    N5851    N        0.95305    0.87789    0.73346    1.000
    N5852    N        0.95762    0.99843    0.74346    1.000
    N5853    N        0.94885    0.96260    0.63248    1.000
    Si5854   Si       0.95023    0.92288    0.73837    1.000
    Si5855   Si       0.93725    0.93592    0.66370    1.000
    N5856    N        0.93494    0.89283    0.65663    1.000
    N5857    N        0.96827    0.93104    0.69843    1.000
    N5858    N        0.95084    0.78861    0.84812    1.000
    N5859    N        0.95306    0.81527    0.77866    1.000
    Si5860   Si       0.96331    0.85816    0.76962    1.000
    Si5861   Si       0.97260    0.78759    0.75009    1.000
    Si5862   Si       0.98558    0.76675    0.86024    1.000
    N5863    N        0.94426    0.88154    0.80228    1.000
    N5864    N        0.97010    0.00043    0.80769    1.000
    N5865    N        0.97177    0.93796    0.77389    1.000
    Si5866   Si       0.95983    0.92075    0.81316    1.000
    N5867    N        0.98461    0.91932    0.84949    1.000
    Si5868   Si       0.98539    0.98024    0.77155    1.000
    N5869    N        0.98037    0.84626    0.87456    1.000
    Si5870   Si       0.95306    0.81382    0.88508    1.000
    N5871    N        0.95129    0.86608    0.97467    1.000
    N5872    N        0.98364    0.78564    0.90260    1.000
    N5873    N        0.96365    0.76453    0.97194    1.000
    N5874    N        0.96056    0.90133    0.91606    1.000
    Si5875   Si       0.95581    0.95749    0.99709    1.000
    Si5876   Si       0.93132    0.89781    0.94893    1.000
    N5877    N        0.95476    0.00449    0.99677    1.000
    N5878    N        0.96563    0.97481    0.89581    1.000
    Si5879   Si       0.96577    0.88714    0.87562    1.000
