# CIF file generated by openbabel 3.1.1, see https://openbabel.org
data_I
_chemical_name_common '3.01-89.aims'
_cell_length_a 39.8057
_cell_length_b 39.8057
_cell_length_c 39.8057
_cell_angle_alpha 90
_cell_angle_beta 90
_cell_angle_gamma 90
loop_
    _atom_site_label
    _atom_site_type_symbol
    _atom_site_fract_x
    _atom_site_fract_y
    _atom_site_fract_z
    _atom_site_occupancy
    Si0      Si       0.07939    0.03863    0.01546    1.000
    N1       N        0.07613    0.03431    0.11154    1.000
    Si2      Si       0.04386    0.02117    0.08337    1.000
    N3       N        0.02221    0.05943    0.08482    1.000
    N4       N        0.06545    0.01061    0.04673    1.000
    N5       N        0.12329    0.03192    0.00855    1.000
    Si6      Si       0.15540    0.04862    0.02967    1.000
    N7       N        0.18514    0.01926    0.04239    1.000
    N8       N        0.18909    0.03938    0.11104    1.000
    Si9      Si       0.22410    0.01370    0.02361    1.000
    Si10     Si       0.23298    0.04343    0.11679    1.000
    N11      N        0.13777    0.06247    0.06848    1.000
    Si12     Si       0.03250    0.05014    0.18812    1.000
    N13      N        0.06348    0.05782    0.21953    1.000
    N14      N        0.05330    0.01092    0.17692    1.000
    Si15     Si       0.08621    0.01109    0.20740    1.000
    Si16     Si       0.16472    0.02463    0.21824    1.000
    Si17     Si       0.22562    0.06443    0.19288    1.000
    Si18     Si       0.16717    0.04298    0.15045    1.000
    N19      N        0.12356    0.03355    0.21605    1.000
    N20      N        0.18720    0.04500    0.18705    1.000
    N21      N        0.14090    0.01014    0.15040    1.000
    Si22     Si       0.04957    0.05425    0.33074    1.000
    N23      N        0.07005    0.01882    0.31528    1.000
    Si24     Si       0.09462    0.02076    0.28084    1.000
    N25      N        0.03126    0.04247    0.36713    1.000
    N26      N        0.11213    0.06224    0.27554    1.000
    N27      N        0.99341    0.02459    0.27777    1.000
    Si28     Si       0.22004    0.05042    0.26231    1.000
    Si29     Si       0.15403    0.04179    0.28614    1.000
    Si30     Si       0.21076    0.03336    0.33324    1.000
    N31      N        0.17745    0.05680    0.31963    1.000
    N32      N        0.23486    0.02411    0.29385    1.000
    N33      N        0.18050    0.03616    0.25422    1.000
    Si34     Si       0.05617    0.02405    0.39836    1.000
    N35      N        0.09230    0.04661    0.40194    1.000
    Si36     Si       0.99604    0.02928    0.44479    1.000
    N37      N        0.03786    0.01823    0.43812    1.000
    Si38     Si       0.99127    0.05737    0.37759    1.000
    Si39     Si       0.20371    0.03960    0.45155    1.000
    N40      N        0.21203    0.04564    0.49364    1.000
    Si41     Si       0.13546    0.04966    0.41085    1.000
    N42      N        0.15244    0.01155    0.39509    1.000
    N43      N        0.22969    0.06106    0.42561    1.000
    N44      N        0.16171    0.05462    0.44834    1.000
    N45      N        0.04149    0.04067    0.57576    1.000
    Si46     Si       0.03393    0.03033    0.53301    1.000
    Si47     Si       0.00742    0.04543    0.60185    1.000
    N48      N        0.04224    0.06622    0.50942    1.000
    N49      N        0.99196    0.01030    0.62292    1.000
    N50      N        0.14886    0.02082    0.54636    1.000
    Si51     Si       0.17917    0.02334    0.57882    1.000
    N52      N        0.21464    0.01593    0.55936    1.000
    Si53     Si       0.13901    0.06310    0.54640    1.000
    N54      N        0.22242    0.06704    0.61958    1.000
    Si55     Si       0.21865    0.00642    0.51802    1.000
    N56      N        0.99580    0.03649    0.68053    1.000
    N57      N        0.06551    0.03766    0.66593    1.000
    N58      N        0.04346    0.05129    0.73230    1.000
    Si59     Si       0.10473    0.01854    0.65303    1.000
    Si60     Si       0.03421    0.02741    0.69712    1.000
    Si61     Si       0.19527    0.01902    0.71124    1.000
    N62      N        0.13555    0.05093    0.66004    1.000
    N63      N        0.22117    0.02529    0.67287    1.000
    N64      N        0.17355    0.05324    0.72429    1.000
    N65      N        0.06677    0.03142    0.85179    1.000
    N66      N        0.02837    0.02743    0.79825    1.000
    Si67     Si       0.05532    0.05562    0.81780    1.000
    Si68     Si       0.08319    0.04675    0.75002    1.000
    N69      N        0.99556    0.03643    0.86994    1.000
    Si70     Si       0.99694    0.03783    0.77079    1.000
    N71      N        0.08647    0.06702    0.78967    1.000
    N72      N        0.13387    0.02061    0.83297    1.000
    Si73     Si       0.14792    0.05429    0.85448    1.000
    N74      N        0.18944    0.04446    0.84371    1.000
    Si75     Si       0.22344    0.04955    0.81813    1.000
    Si76     Si       0.03269    0.01480    0.87365    1.000
    N77      N        0.05344    0.02765    0.98243    1.000
    Si78     Si       0.05438    0.04494    0.94187    1.000
    N79      N        0.05482    0.01159    0.91346    1.000
    N80      N        0.22430    0.01484    0.98065    1.000
    Si81     Si       0.12578    0.04606    0.93128    1.000
    N82      N        0.22358    0.05616    0.90761    1.000
    N83      N        0.14610    0.04606    0.89418    1.000
    N84      N        0.16348    0.05609    0.94990    1.000
    Si85     Si       0.18411    0.03951    0.91414    1.000
    N86      N        0.08433    0.09859    0.09671    1.000
    Si87     Si       0.04664    0.10544    0.01994    1.000
    Si88     Si       0.10643    0.09182    0.06039    1.000
    N89      N        0.00575    0.09428    0.02919    1.000
    N90      N        0.07842    0.07716    0.03105    1.000
    N91      N        0.01986    0.11972    0.10270    1.000
    Si92     Si       0.99760    0.09509    0.07289    1.000
    Si93     Si       0.05240    0.07222    0.11211    1.000
    N94      N        0.17731    0.08337    0.01282    1.000
    Si95     Si       0.19649    0.11378    0.03726    1.000
    N96      N        0.18522    0.11105    0.07993    1.000
    Si97     Si       0.16665    0.07688    0.09820    1.000
    N98      N        0.23937    0.11926    0.03990    1.000
    N99      N        0.03371    0.07576    0.15152    1.000
    Si100    Si       0.01364    0.11471    0.14405    1.000
    N101     N        0.99182    0.11358    0.22395    1.000
    Si102    Si       0.10401    0.07121    0.23127    1.000
    N103     N        0.13056    0.09877    0.21006    1.000
    Si104    Si       0.22715    0.11697    0.24162    1.000
    N105     N        0.21884    0.10624    0.20170    1.000
    N106     N        0.15393    0.08386    0.14001    1.000
    Si107    Si       0.13804    0.11516    0.17191    1.000
    N108     N        0.21882    0.12586    0.13479    1.000
    Si109    Si       0.10597    0.09475    0.30330    1.000
    N110     N        0.08384    0.08146    0.33926    1.000
    Si111    Si       0.03282    0.12133    0.30573    1.000
    N112     N        0.02034    0.07999    0.30893    1.000
    N113     N        0.07598    0.12153    0.28886    1.000
    Si114    Si       0.18680    0.09871    0.30779    1.000
    N115     N        0.21275    0.09245    0.27337    1.000
    N116     N        0.14424    0.11472    0.30354    1.000
    N117     N        0.21019    0.12932    0.32694    1.000
    Si118    Si       0.01203    0.08904    0.48909    1.000
    Si119    Si       0.09535    0.08663    0.38107    1.000
    N120     N        0.09857    0.09050    0.46971    1.000
    N121     N        0.06912    0.11297    0.40451    1.000
    N122     N        0.03557    0.11875    0.46658    1.000
    N123     N        0.99824    0.09755    0.39003    1.000
    Si124    Si       0.07654    0.12141    0.44650    1.000
    Si125    Si       0.03106    0.12571    0.38672    1.000
    N126     N        0.13644    0.09144    0.39432    1.000
    Si127    Si       0.14153    0.08438    0.47187    1.000
    N128     N        0.20132    0.11890    0.39988    1.000
    N129     N        0.15638    0.12144    0.45272    1.000
    N130     N        0.21180    0.11978    0.49287    1.000
    Si131    Si       0.24011    0.10061    0.41079    1.000
    N132     N        0.04734    0.11091    0.57873    1.000
    Si133    Si       0.01655    0.11821    0.60850    1.000
    Si134    Si       0.08100    0.08731    0.51122    1.000
    Si135    Si       0.06916    0.07378    0.57683    1.000
    N136     N        0.09130    0.07285    0.61454    1.000
    N137     N        0.09721    0.06560    0.54455    1.000
    N138     N        0.21906    0.09077    0.55118    1.000
    Si139    Si       0.19940    0.08825    0.59030    1.000
    Si140    Si       0.20265    0.08173    0.51310    1.000
    N141     N        0.15843    0.08121    0.51255    1.000
    Si142    Si       0.13487    0.07525    0.62373    1.000
    N143     N        0.16191    0.06721    0.58745    1.000
    Si144    Si       0.06193    0.07662    0.64796    1.000
    N145     N        0.01801    0.07887    0.63210    1.000
    N146     N        0.07325    0.11358    0.67005    1.000
    Si147    Si       0.02339    0.09049    0.73346    1.000
    N148     N        0.00902    0.10391    0.69482    1.000
    N149     N        0.05201    0.12088    0.74423    1.000
    Si150    Si       0.98912    0.07686    0.66745    1.000
    N151     N        0.10899    0.06501    0.72305    1.000
    N152     N        0.14394    0.11568    0.69806    1.000
    N153     N        0.13961    0.11672    0.63539    1.000
    N154     N        0.20616    0.11091    0.73548    1.000
    Si155    Si       0.14117    0.07244    0.69680    1.000
    N156     N        0.03208    0.08943    0.83492    1.000
    Si157    Si       0.99500    0.07989    0.85817    1.000
    Si158    Si       0.11602    0.09731    0.79900    1.000
    N159     N        0.99447    0.08082    0.76447    1.000
    N160     N        0.24190    0.09355    0.85029    1.000
    Si161    Si       0.23632    0.10284    0.76554    1.000
    N162     N        0.13999    0.09186    0.83585    1.000
    N163     N        0.14322    0.10907    0.76850    1.000
    N164     N        0.21075    0.07471    0.78497    1.000
    Si165    Si       0.17789    0.08291    0.75575    1.000
    Si166    Si       0.16157    0.12334    0.85627    1.000
    Si167    Si       0.09152    0.11333    0.95125    1.000
    Si168    Si       0.99522    0.10456    0.93172    1.000
    N169     N        0.05712    0.11849    0.97872    1.000
    N170     N        0.01941    0.06861    0.93468    1.000
    N171     N        0.09019    0.07138    0.93775    1.000
    Si172    Si       0.22482    0.09459    0.89128    1.000
    N173     N        0.13121    0.11335    0.97171    1.000
    N174     N        0.19933    0.12192    0.95654    1.000
    N175     N        0.18422    0.11300    0.89271    1.000
    Si176    Si       0.16931    0.09327    0.97021    1.000
    Si177    Si       0.03653    0.15394    0.08198    1.000
    N178     N        0.05330    0.14323    0.04155    1.000
    N179     N        0.06937    0.16465    0.10684    1.000
    Si180    Si       0.08891    0.16806    0.03427    1.000
    N181     N        0.99974    0.17128    0.06196    1.000
    Si182    Si       0.09616    0.13311    0.11899    1.000
    Si183    Si       0.02034    0.17684    0.02538    1.000
    N184     N        0.12179    0.12968    0.04286    1.000
    N185     N        0.13551    0.14233    0.10733    1.000
    N186     N        0.17732    0.14931    0.01690    1.000
    Si187    Si       0.14756    0.16118    0.06688    1.000
    N188     N        0.18187    0.17699    0.09197    1.000
    Si189    Si       0.18064    0.13843    0.11641    1.000
    Si190    Si       0.21107    0.17293    0.99829    1.000
    Si191    Si       0.13582    0.14091    0.00392    1.000
    N192     N        0.09724    0.12938    0.16241    1.000
    Si193    Si       0.01775    0.14707    0.21693    1.000
    Si194    Si       0.06864    0.15451    0.18336    1.000
    N195     N        0.02830    0.14325    0.17286    1.000
    N196     N        0.06139    0.15070    0.22649    1.000
    N197     N        0.99549    0.18197    0.23498    1.000
    N198     N        0.16827    0.14591    0.16576    1.000
    Si199    Si       0.21907    0.13996    0.17401    1.000
    N200     N        0.21398    0.18476    0.18875    1.000
    Si201    Si       0.07818    0.15825    0.26554    1.000
    N202     N        0.04037    0.14140    0.34420    1.000
    N203     N        0.00186    0.14322    0.28547    1.000
    Si204    Si       0.06411    0.17642    0.33251    1.000
    N205     N        0.10709    0.17051    0.33612    1.000
    N206     N        0.11856    0.17465    0.26861    1.000
    Si207    Si       0.00506    0.18697    0.27910    1.000
    Si208    Si       0.21043    0.16271    0.29699    1.000
    Si209    Si       0.13637    0.15795    0.30404    1.000
    Si210    Si       0.21738    0.14327    0.36705    1.000
    N211     N        0.17305    0.18055    0.30905    1.000
    N212     N        0.20612    0.15410    0.25431    1.000
    N213     N        0.09176    0.16078    0.45978    1.000
    Si214    Si       0.01138    0.15425    0.45742    1.000
    N215     N        0.01099    0.15515    0.41294    1.000
    Si216    Si       0.18036    0.14694    0.47882    1.000
    N217     N        0.19887    0.17269    0.44908    1.000
    N218     N        0.15366    0.16726    0.39404    1.000
    Si219    Si       0.15998    0.12629    0.40934    1.000
    Si220    Si       0.05771    0.14452    0.55533    1.000
    N221     N        0.02179    0.15789    0.53209    1.000
    N222     N        0.06392    0.18110    0.58223    1.000
    Si223    Si       0.10659    0.16126    0.50053    1.000
    Si224    Si       0.03424    0.18623    0.61446    1.000
    N225     N        0.08471    0.12948    0.52428    1.000
    N226     N        0.15044    0.16331    0.50747    1.000
    N227     N        0.20297    0.12860    0.60255    1.000
    N228     N        0.10533    0.17030    0.73518    1.000
    N229     N        0.09732    0.17226    0.65066    1.000
    N230     N        0.03877    0.17255    0.70098    1.000
    N231     N        0.02621    0.14993    0.63816    1.000
    Si232    Si       0.06231    0.16117    0.73857    1.000
    Si233    Si       0.03424    0.13545    0.67862    1.000
    Si234    Si       0.11231    0.13218    0.66638    1.000
    N235     N        0.17238    0.16892    0.73043    1.000
    Si236    Si       0.18264    0.13321    0.70628    1.000
    N237     N        0.16092    0.17964    0.63429    1.000
    N238     N        0.20604    0.13299    0.66968    1.000
    Si239    Si       0.17786    0.13991    0.63704    1.000
    N240     N        0.00959    0.14390    0.79930    1.000
    N241     N        0.04167    0.15494    0.85682    1.000
    Si242    Si       0.11329    0.16845    0.82244    1.000
    N243     N        0.08881    0.13310    0.80868    1.000
    Si244    Si       0.01061    0.18501    0.86094    1.000
    Si245    Si       0.04712    0.12919    0.82004    1.000
    Si246    Si       0.23524    0.13320    0.83345    1.000
    N247     N        0.12918    0.15479    0.86114    1.000
    N248     N        0.14530    0.17198    0.79419    1.000
    N249     N        0.19261    0.14418    0.83424    1.000
    Si250    Si       0.14017    0.15231    0.75513    1.000
    Si251    Si       0.17889    0.18269    0.81892    1.000
    Si252    Si       0.04852    0.15698    0.89994    1.000
    N253     N        0.00377    0.16919    0.98582    1.000
    N254     N        0.08654    0.14040    0.91573    1.000
    N255     N        0.02063    0.13984    0.92779    1.000
    Si256    Si       0.03959    0.15592    0.96410    1.000
    N257     N        0.10864    0.17219    0.99580    1.000
    N258     N        0.15318    0.17315    0.92661    1.000
    Si259    Si       0.18563    0.14591    0.92284    1.000
    N260     N        0.21361    0.17430    0.90414    1.000
    Si261    Si       0.11652    0.17049    0.90214    1.000
    N262     N        0.05812    0.20280    0.02613    1.000
    N263     N        0.03161    0.21799    0.11670    1.000
    N264     N        0.10311    0.23159    0.11515    1.000
    Si265    Si       0.99866    0.24546    0.12304    1.000
    Si266    Si       0.11671    0.23231    0.07303    1.000
    N267     N        0.11911    0.19346    0.05733    1.000
    Si268    Si       0.23492    0.23086    0.05286    1.000
    Si269    Si       0.18356    0.21859    0.10113    1.000
    N270     N        0.22383    0.23309    0.09626    1.000
    N271     N        0.22773    0.19145    0.03449    1.000
    Si272    Si       0.07049    0.20415    0.12660    1.000
    N273     N        0.08503    0.22299    0.23600    1.000
    Si274    Si       0.07149    0.23136    0.19567    1.000
    N275     N        0.07395    0.19547    0.16951    1.000
    Si276    Si       0.00302    0.22339    0.22184    1.000
    N277     N        0.02926    0.24487    0.19507    1.000
    N278     N        0.15535    0.19772    0.21321    1.000
    Si279    Si       0.19665    0.18700    0.22983    1.000
    Si280    Si       0.12626    0.20765    0.24318    1.000
    N281     N        0.16372    0.21673    0.14245    1.000
    Si282    Si       0.17194    0.18886    0.17392    1.000
    N283     N        0.04528    0.20831    0.35386    1.000
    Si284    Si       0.06264    0.22909    0.27272    1.000
    Si285    Si       0.01242    0.23945    0.35173    1.000
    N286     N        0.01995    0.23502    0.26030    1.000
    N287     N        0.05292    0.18954    0.29056    1.000
    Si288    Si       0.23167    0.22999    0.28979    1.000
    Si289    Si       0.18400    0.20877    0.33759    1.000
    N290     N        0.14896    0.22848    0.35500    1.000
    N291     N        0.20416    0.24423    0.32010    1.000
    N292     N        0.20672    0.22186    0.25320    1.000
    Si293    Si       0.12775    0.19099    0.36901    1.000
    N294     N        0.14399    0.24474    0.25903    1.000
    N295     N        0.21044    0.18700    0.36285    1.000
    N296     N        0.02539    0.19272    0.47367    1.000
    Si297    Si       0.09511    0.19876    0.43786    1.000
    N298     N        0.09736    0.20117    0.39549    1.000
    Si299    Si       0.02297    0.23113    0.45119    1.000
    Si300    Si       0.06622    0.23158    0.38591    1.000
    N301     N        0.06419    0.23098    0.43398    1.000
    N302     N        0.13833    0.21007    0.44824    1.000
    Si303    Si       0.17282    0.19651    0.42398    1.000
    Si304    Si       0.14278    0.24338    0.47524    1.000
    Si305    Si       0.23135    0.21576    0.38888    1.000
    N306     N        0.19948    0.23022    0.41336    1.000
    Si307    Si       0.09253    0.20954    0.56047    1.000
    N308     N        0.02610    0.23359    0.53070    1.000
    Si309    Si       0.03807    0.19504    0.51420    1.000
    N310     N        0.08303    0.19441    0.51931    1.000
    Si311    Si       0.99685    0.24135    0.59313    1.000
    N312     N        0.99541    0.19911    0.59681    1.000
    N313     N        0.14192    0.23241    0.52017    1.000
    Si314    Si       0.21030    0.21952    0.59571    1.000
    N315     N        0.19299    0.20973    0.55564    1.000
    Si316    Si       0.15681    0.19397    0.53903    1.000
    N317     N        0.12911    0.19362    0.57629    1.000
    Si318    Si       0.12245    0.19360    0.62065    1.000
    Si319    Si       0.21793    0.24197    0.53960    1.000
    N320     N        0.23283    0.19053    0.61869    1.000
    N321     N        0.18810    0.23927    0.62587    1.000
    N322     N        0.03651    0.21485    0.64630    1.000
    N323     N        0.08418    0.22605    0.69715    1.000
    Si324    Si       0.99896    0.23017    0.66062    1.000
    Si325    Si       0.06508    0.19538    0.67039    1.000
    Si326    Si       0.00339    0.20625    0.71732    1.000
    N327     N        0.10867    0.23641    0.62655    1.000
    Si328    Si       0.11268    0.24425    0.66910    1.000
    Si329    Si       0.11744    0.21085    0.72117    1.000
    Si330    Si       0.17308    0.21393    0.65920    1.000
    N331     N        0.14320    0.22062    0.68768    1.000
    N332     N        0.20881    0.20616    0.68292    1.000
    Si333    Si       0.20215    0.19997    0.72548    1.000
    N334     N        0.19286    0.24046    0.74014    1.000
    N335     N        0.09409    0.20823    0.81908    1.000
    Si336    Si       0.09089    0.23055    0.85615    1.000
    N337     N        0.00607    0.20927    0.82420    1.000
    Si338    Si       0.07920    0.22072    0.78063    1.000
    N339     N        0.05026    0.19107    0.76891    1.000
    N340     N        0.11156    0.23664    0.75698    1.000
    Si341    Si       0.01199    0.18557    0.78693    1.000
    Si342    Si       0.19883    0.23939    0.78192    1.000
    N343     N        0.17721    0.21199    0.85126    1.000
    N344     N        0.20793    0.19889    0.79081    1.000
    N345     N        0.02954    0.20108    0.89623    1.000
    Si346    Si       0.06221    0.21866    0.91760    1.000
    N347     N        0.09405    0.20644    0.89160    1.000
    Si348    Si       0.09063    0.20861    0.98139    1.000
    N349     N        0.06165    0.19259    0.95309    1.000
    Si350    Si       0.20549    0.21169    0.88342    1.000
    N351     N        0.12692    0.22711    0.96190    1.000
    N352     N        0.18487    0.23740    0.91439    1.000
    N353     N        0.19496    0.20737    0.97761    1.000
    Si354    Si       0.16406    0.21215    0.94522    1.000
    N355     N        0.02174    0.26486    0.03623    1.000
    N356     N        0.08941    0.26108    0.05353    1.000
    Si357    Si       0.10973    0.29910    0.04000    1.000
    Si358    Si       0.05851    0.24480    0.02913    1.000
    Si359    Si       0.15940    0.28524    0.09720    1.000
    N360     N        0.21266    0.25858    0.02918    1.000
    N361     N        0.13539    0.28451    0.00700    1.000
    Si362    Si       0.21394    0.29875    0.05474    1.000
    N363     N        0.15699    0.24664    0.07872    1.000
    N364     N        0.01703    0.28330    0.13691    1.000
    N365     N        0.09774    0.26010    0.17588    1.000
    Si366    Si       0.02110    0.28535    0.18166    1.000
    Si367    Si       0.08980    0.30376    0.17097    1.000
    Si368    Si       0.13061    0.24724    0.14565    1.000
    N369     N        0.15088    0.28482    0.13914    1.000
    Si370    Si       0.18283    0.25686    0.24327    1.000
    Si371    Si       0.21887    0.28861    0.18790    1.000
    N372     N        0.18084    0.27610    0.20314    1.000
    N373     N        0.24109    0.25817    0.16514    1.000
    Si374    Si       0.06441    0.27719    0.32684    1.000
    N375     N        0.08271    0.26205    0.29128    1.000
    N376     N        0.02278    0.26617    0.31831    1.000
    N377     N        0.09005    0.25931    0.35644    1.000
    Si378    Si       0.99360    0.25566    0.28817    1.000
    Si379    Si       0.12166    0.27351    0.27937    1.000
    N380     N        0.14492    0.28874    0.31393    1.000
    Si381    Si       0.18912    0.28457    0.31136    1.000
    Si382    Si       0.13138    0.26915    0.35189    1.000
    N383     N        0.20348    0.28481    0.27034    1.000
    N384     N        0.03306    0.27371    0.46533    1.000
    Si385    Si       0.07311    0.28486    0.45329    1.000
    N386     N        0.03051    0.26309    0.38434    1.000
    Si387    Si       0.01464    0.30318    0.49446    1.000
    N388     N        0.11392    0.27023    0.46106    1.000
    Si389    Si       0.04244    0.30421    0.38641    1.000
    N390     N        0.18097    0.26456    0.46888    1.000
    N391     N        0.14283    0.30186    0.37890    1.000
    Si392    Si       0.20887    0.26783    0.43571    1.000
    Si393    Si       0.04973    0.26336    0.55252    1.000
    N394     N        0.03439    0.26305    0.59279    1.000
    N395     N        0.09211    0.25501    0.55855    1.000
    Si396    Si       0.10892    0.26865    0.59813    1.000
    N397     N        0.03397    0.29750    0.53018    1.000
    Si398    Si       0.04292    0.30020    0.61457    1.000
    Si399    Si       0.18242    0.30289    0.57501    1.000
    Si400    Si       0.13176    0.26817    0.54177    1.000
    N401     N        0.19924    0.28058    0.54138    1.000
    N402     N        0.14604    0.27947    0.58120    1.000
    N403     N        0.14454    0.29853    0.51177    1.000
    N404     N        0.20835    0.30202    0.60992    1.000
    Si405    Si       0.18635    0.29375    0.50180    1.000
    N406     N        0.00463    0.25057    0.70076    1.000
    Si407    Si       0.02632    0.28883    0.70083    1.000
    N408     N        0.03862    0.29633    0.65879    1.000
    N409     N        0.06136    0.30331    0.72209    1.000
    Si410    Si       0.19275    0.27877    0.72306    1.000
    N411     N        0.18580    0.28289    0.67951    1.000
    Si412    Si       0.20668    0.27423    0.64278    1.000
    N413     N        0.11648    0.28542    0.67351    1.000
    N414     N        0.15306    0.29432    0.73477    1.000
    N415     N        0.05264    0.25849    0.78464    1.000
    Si416    Si       0.06565    0.29662    0.76671    1.000
    N417     N        0.05544    0.25325    0.85272    1.000
    Si418    Si       0.02829    0.25078    0.81920    1.000
    N419     N        0.10662    0.30121    0.78485    1.000
    N420     N        0.98884    0.26926    0.82424    1.000
    N421     N        0.12394    0.25928    0.85934    1.000
    N422     N        0.19566    0.27729    0.85667    1.000
    Si423    Si       0.13511    0.27279    0.76755    1.000
    N424     N        0.16171    0.25608    0.79771    1.000
    N425     N        0.22989    0.26232    0.79975    1.000
    Si426    Si       0.16270    0.25351    0.84156    1.000
    Si427    Si       0.23773    0.26478    0.84351    1.000
    N428     N        0.99903    0.26443    0.94991    1.000
    Si429    Si       0.05554    0.28541    0.88385    1.000
    N430     N        0.06182    0.26097    0.91911    1.000
    Si431    Si       0.04359    0.27363    0.95865    1.000
    N432     N        0.07215    0.25162    0.98494    1.000
    N433     N        0.01513    0.29959    0.88691    1.000
    Si434    Si       0.11290    0.26781    0.97305    1.000
    Si435    Si       0.12649    0.29968    0.87064    1.000
    Si436    Si       0.21272    0.24594    0.98655    1.000
    Si437    Si       0.19096    0.28101    0.90173    1.000
    N438     N        0.19880    0.28475    0.96974    1.000
    N439     N        0.08635    0.32988    0.01876    1.000
    N440     N        0.02877    0.31806    0.07677    1.000
    Si441    Si       0.00747    0.30863    0.04060    1.000
    N442     N        0.00160    0.34645    0.02169    1.000
    Si443    Si       0.11130    0.33596    0.10717    1.000
    Si444    Si       0.03730    0.31552    0.11948    1.000
    N445     N        0.19263    0.32441    0.02680    1.000
    Si446    Si       0.18479    0.34775    0.11317    1.000
    N447     N        0.19668    0.30783    0.09294    1.000
    N448     N        0.13153    0.31232    0.07591    1.000
    N449     N        0.08057    0.31371    0.12990    1.000
    Si450    Si       0.04414    0.34985    0.21708    1.000
    N451     N        0.05265    0.31349    0.19295    1.000
    N452     N        0.02913    0.35853    0.12691    1.000
    Si453    Si       0.22736    0.35676    0.16755    1.000
    N454     N        0.14303    0.35500    0.13009    1.000
    Si455    Si       0.11854    0.34213    0.22849    1.000
    N456     N        0.12373    0.32161    0.18965    1.000
    N457     N        0.20180    0.32283    0.16861    1.000
    N458     N        0.22202    0.34356    0.23861    1.000
    Si459    Si       0.16270    0.30525    0.17610    1.000
    N460     N        0.05975    0.31660    0.34736    1.000
    Si461    Si       0.07737    0.35548    0.34527    1.000
    N462     N        0.02846    0.33372    0.25450    1.000
    N463     N        0.10453    0.35323    0.31385    1.000
    Si464    Si       0.99124    0.33008    0.27441    1.000
    Si465    Si       0.00423    0.36151    0.35418    1.000
    N466     N        0.99402    0.34184    0.31584    1.000
    N467     N        0.12117    0.31265    0.26049    1.000
    Si468    Si       0.20341    0.35062    0.33001    1.000
    Si469    Si       0.13543    0.33074    0.29742    1.000
    N470     N        0.17452    0.35104    0.29566    1.000
    N471     N        0.20274    0.30985    0.34332    1.000
    Si472    Si       0.23781    0.30648    0.25547    1.000
    Si473    Si       0.19136    0.36455    0.25987    1.000
    N474     N        0.10314    0.35992    0.38075    1.000
    N475     N        0.00183    0.34270    0.48182    1.000
    N476     N        0.00749    0.33165    0.38632    1.000
    N477     N        0.07977    0.31972    0.48157    1.000
    Si478    Si       0.11261    0.32253    0.40282    1.000
    N479     N        0.07385    0.30634    0.41525    1.000
    N480     N        0.20230    0.30838    0.41749    1.000
    Si481    Si       0.12284    0.31226    0.47736    1.000
    N482     N        0.13399    0.33033    0.43912    1.000
    Si483    Si       0.18049    0.32097    0.38222    1.000
    N484     N        0.21628    0.31953    0.48583    1.000
    Si485    Si       0.21664    0.33723    0.44655    1.000
    N486     N        0.13149    0.35863    0.49605    1.000
    N487     N        0.04416    0.33566    0.58903    1.000
    N488     N        0.09977    0.34302    0.54881    1.000
    Si489    Si       0.08854    0.33638    0.58859    1.000
    Si490    Si       0.00819    0.35092    0.57133    1.000
    Si491    Si       0.08644    0.35342    0.50759    1.000
    N492     N        0.08805    0.30440    0.61698    1.000
    N493     N        0.16972    0.34417    0.56866    1.000
    N494     N        0.08476    0.34800    0.67625    1.000
    Si495    Si       0.06048    0.34801    0.72872    1.000
    N496     N        0.99027    0.30999    0.71940    1.000
    Si497    Si       0.08140    0.30798    0.66126    1.000
    Si498    Si       0.23615    0.33889    0.72088    1.000
    N499     N        0.23699    0.33701    0.67784    1.000
    N500     N        0.15340    0.34836    0.68748    1.000
    Si501    Si       0.14843    0.30574    0.69376    1.000
    N502     N        0.22526    0.30203    0.73902    1.000
    N503     N        0.04942    0.33597    0.77267    1.000
    Si504    Si       0.07356    0.35427    0.86336    1.000
    N505     N        0.03549    0.35249    0.84087    1.000
    Si506    Si       0.00411    0.33620    0.86761    1.000
    N507     N        0.19858    0.36035    0.86380    1.000
    Si508    Si       0.12177    0.33830    0.80564    1.000
    N509     N        0.14643    0.35754    0.77674    1.000
    Si510    Si       0.18937    0.32288    0.83856    1.000
    N511     N        0.20896    0.32637    0.80020    1.000
    N512     N        0.14638    0.32040    0.83640    1.000
    Si513    Si       0.19089    0.35938    0.77687    1.000
    Si514    Si       0.23731    0.30031    0.78101    1.000
    N515     N        0.99740    0.36167    0.90109    1.000
    N516     N        0.08510    0.31333    0.87610    1.000
    Si517    Si       0.00991    0.34298    0.97712    1.000
    N518     N        0.04166    0.31477    0.96775    1.000
    Si519    Si       0.07947    0.33152    0.97636    1.000
    N520     N        0.10498    0.30354    0.95142    1.000
    N521     N        0.22634    0.35700    0.96284    1.000
    N522     N        0.15692    0.34094    0.96895    1.000
    Si523    Si       0.13429    0.32958    0.93219    1.000
    Si524    Si       0.17051    0.30705    0.99288    1.000
    Si525    Si       0.22791    0.31559    0.95569    1.000
    N526     N        0.22502    0.30476    0.91231    1.000
    N527     N        0.15367    0.30238    0.90379    1.000
    N528     N        0.06619    0.40104    0.02204    1.000
    N529     N        0.00098    0.40644    0.06585    1.000
    Si530    Si       0.06112    0.38231    0.10921    1.000
    Si531    Si       0.09238    0.36907    0.03988    1.000
    N532     N        0.09006    0.36310    0.08313    1.000
    N533     N        0.20215    0.39468    0.02064    1.000
    N534     N        0.17891    0.37622    0.07966    1.000
    N535     N        0.13473    0.37211    0.02674    1.000
    Si536    Si       0.23489    0.40571    0.10960    1.000
    Si537    Si       0.16562    0.41786    0.08648    1.000
    Si538    Si       0.17582    0.36278    0.03899    1.000
    Si539    Si       0.00434    0.38338    0.15475    1.000
    N540     N        0.08060    0.39341    0.14574    1.000
    Si541    Si       0.09991    0.40767    0.21499    1.000
    N542     N        0.01145    0.37059    0.19671    1.000
    N543     N        0.08450    0.36820    0.22497    1.000
    Si544    Si       0.98884    0.38748    0.23063    1.000
    Si545    Si       0.16859    0.40288    0.20685    1.000
    N546     N        0.20598    0.39220    0.18758    1.000
    N547     N        0.22333    0.36688    0.12626    1.000
    N548     N        0.13329    0.40786    0.18398    1.000
    Si549    Si       0.12518    0.39425    0.14432    1.000
    N550     N        0.15604    0.36761    0.23112    1.000
    N551     N        0.04275    0.38147    0.34995    1.000
    N552     N        0.01042    0.41570    0.25406    1.000
    N553     N        0.21889    0.39928    0.26150    1.000
    Si554    Si       0.23343    0.41083    0.30394    1.000
    N555     N        0.24098    0.36636    0.31298    1.000
    N556     N        0.18987    0.36476    0.37087    1.000
    N557     N        0.99743    0.41121    0.47766    1.000
    N558     N        0.06277    0.38719    0.49497    1.000
    Si559    Si       0.04130    0.42046    0.37148    1.000
    N560     N        0.22020    0.41775    0.40955    1.000
    Si561    Si       0.14734    0.36735    0.45537    1.000
    Si562    Si       0.11758    0.39873    0.39123    1.000
    N563     N        0.18992    0.37348    0.45577    1.000
    N564     N        0.12722    0.39899    0.43364    1.000
    Si565    Si       0.19150    0.40851    0.37593    1.000
    Si566    Si       0.20520    0.41344    0.45077    1.000
    N567     N        0.01349    0.38134    0.54091    1.000
    N568     N        0.10151    0.37370    0.60865    1.000
    Si569    Si       0.02013    0.37772    0.49637    1.000
    N570     N        0.13456    0.40399    0.55335    1.000
    Si571    Si       0.12598    0.40882    0.59791    1.000
    N572     N        0.21081    0.39677    0.55240    1.000
    Si573    Si       0.19056    0.37831    0.58653    1.000
    N574     N        0.16727    0.40487    0.61211    1.000
    N575     N        0.22603    0.36693    0.60859    1.000
    Si576    Si       0.13853    0.35982    0.54022    1.000
    Si577    Si       0.01035    0.40026    0.62765    1.000
    N578     N        0.02330    0.36927    0.71531    1.000
    Si579    Si       0.02117    0.40506    0.69293    1.000
    N580     N        0.04476    0.39833    0.65316    1.000
    Si581    Si       0.08106    0.37888    0.64623    1.000
    N582     N        0.10788    0.40536    0.66884    1.000
    N583     N        0.09298    0.37368    0.73660    1.000
    N584     N        0.20420    0.39740    0.66909    1.000
    N585     N        0.20660    0.36860    0.73611    1.000
    Si586    Si       0.11652    0.37257    0.69866    1.000
    N587     N        0.14943    0.40107    0.72051    1.000
    Si588    Si       0.18178    0.37785    0.70059    1.000
    Si589    Si       0.23421    0.37266    0.65116    1.000
    N590     N        0.04498    0.40544    0.79795    1.000
    Si591    Si       0.08709    0.40836    0.81508    1.000
    N592     N        0.11843    0.41990    0.78799    1.000
    N593     N        0.09723    0.36696    0.82877    1.000
    N594     N        0.99039    0.35946    0.77742    1.000
    Si595    Si       0.02899    0.36523    0.79795    1.000
    Si596    Si       0.12600    0.39161    0.75754    1.000
    N597     N        0.19803    0.40085    0.78964    1.000
    Si598    Si       0.23080    0.38851    0.86367    1.000
    Si599    Si       0.21989    0.40819    0.75263    1.000
    N600     N        0.15653    0.41213    0.85729    1.000
    Si601    Si       0.03040    0.38818    0.91798    1.000
    Si602    Si       0.04924    0.40849    0.98279    1.000
    N603     N        0.06963    0.37899    0.89886    1.000
    N604     N        0.02870    0.37764    0.95996    1.000
    Si605    Si       0.10080    0.39495    0.92500    1.000
    N606     N        0.09917    0.36790    0.96269    1.000
    Si607    Si       0.22496    0.39349    0.93723    1.000
    Si608    Si       0.13528    0.37612    0.98454    1.000
    N609     N        0.18791    0.40294    0.91970    1.000
    N610     N        0.15736    0.41375    0.97933    1.000
    N611     N        0.13201    0.36335    0.90686    1.000
    Si612    Si       0.16648    0.38320    0.88770    1.000
    Si613    Si       0.23670    0.38506    0.99691    1.000
    N614     N        0.02914    0.46410    0.04246    1.000
    Si615    Si       0.09611    0.44626    0.10508    1.000
    N616     N        0.99629    0.46322    0.10668    1.000
    Si617    Si       0.03930    0.42351    0.05101    1.000
    N618     N        0.06334    0.42002    0.08697    1.000
    Si619    Si       0.03126    0.47749    0.99944    1.000
    N620     N        0.10358    0.47888    0.07703    1.000
    N621     N        0.13251    0.42384    0.11323    1.000
    Si622    Si       0.17679    0.43014    0.01539    1.000
    N623     N        0.20300    0.43499    0.10088    1.000
    N624     N        0.15693    0.43993    0.05120    1.000
    N625     N        0.19439    0.46769    0.00478    1.000
    N626     N        0.01966    0.42380    0.15689    1.000
    N627     N        0.08119    0.46286    0.14206    1.000
    Si628    Si       0.06172    0.42953    0.16244    1.000
    Si629    Si       0.00122    0.46177    0.15046    1.000
    Si630    Si       0.08063    0.46808    0.23197    1.000
    N631     N        0.06727    0.43494    0.20411    1.000
    N632     N        0.19742    0.45994    0.16460    1.000
    Si633    Si       0.22637    0.42819    0.17628    1.000
    Si634    Si       0.20181    0.47471    0.12167    1.000
    N635     N        0.11311    0.43918    0.24400    1.000
    N636     N        0.17897    0.43758    0.22896    1.000
    Si637    Si       0.22075    0.44409    0.24662    1.000
    N638     N        0.03690    0.45430    0.34511    1.000
    Si639    Si       0.00663    0.45698    0.26210    1.000
    N640     N        0.10888    0.47508    0.34339    1.000
    Si641    Si       0.00321    0.48198    0.33744    1.000
    N642     N        0.23057    0.45479    0.28743    1.000
    Si643    Si       0.19811    0.46597    0.31437    1.000
    N644     N        0.15972    0.46691    0.29284    1.000
    N645     N        0.20681    0.42550    0.33626    1.000
    Si646    Si       0.14912    0.46177    0.25067    1.000
    N647     N        0.08041    0.42299    0.39044    1.000
    Si648    Si       0.01273    0.43749    0.44748    1.000
    N649     N        0.05432    0.44354    0.45587    1.000
    Si650    Si       0.07381    0.45412    0.41899    1.000
    Si651    Si       0.06969    0.43058    0.49529    1.000
    N652     N        0.11494    0.43587    0.49420    1.000
    N653     N        0.01272    0.42508    0.40511    1.000
    N654     N        0.11757    0.46488    0.42322    1.000
    N655     N        0.17527    0.44341    0.45483    1.000
    N656     N        0.14996    0.42383    0.37641    1.000
    Si657    Si       0.13264    0.43437    0.45493    1.000
    Si658    Si       0.13189    0.46484    0.37904    1.000
    N659     N        0.22722    0.42203    0.48625    1.000
    N660     N        0.04793    0.44418    0.53186    1.000
    Si661    Si       0.02599    0.47069    0.60451    1.000
    N662     N        0.01815    0.42901    0.59437    1.000
    N663     N        0.11049    0.47271    0.55035    1.000
    Si664    Si       0.01341    0.42418    0.55129    1.000
    N665     N        0.11332    0.44843    0.61622    1.000
    Si666    Si       0.06698    0.48193    0.54315    1.000
    Si667    Si       0.21264    0.43355    0.52745    1.000
    N668     N        0.17732    0.45736    0.53100    1.000
    Si669    Si       0.13578    0.44150    0.53107    1.000
    N670     N        0.00809    0.44231    0.70929    1.000
    N671     N        0.02085    0.47149    0.64760    1.000
    Si672    Si       0.11316    0.44835    0.65979    1.000
    N673     N        0.08706    0.47599    0.68119    1.000
    Si674    Si       0.00809    0.48022    0.73204    1.000
    Si675    Si       0.16330    0.44185    0.71534    1.000
    N676     N        0.13728    0.46615    0.74222    1.000
    N677     N        0.20455    0.43942    0.72472    1.000
    Si678    Si       0.18723    0.42848    0.64521    1.000
    Si679    Si       0.22809    0.47392    0.71059    1.000
    N680     N        0.15855    0.45317    0.67154    1.000
    N681     N        0.21573    0.45491    0.62855    1.000
    Si682    Si       0.01965    0.44152    0.79948    1.000
    N683     N        0.02905    0.45528    0.83862    1.000
    N684     N        0.09131    0.43364    0.85071    1.000
    Si685    Si       0.06996    0.47074    0.83878    1.000
    N686     N        0.02985    0.47335    0.76958    1.000
    Si687    Si       0.00365    0.44734    0.87113    1.000
    N688     N        0.16708    0.46336    0.81075    1.000
    Si689    Si       0.12882    0.46188    0.78645    1.000
    Si690    Si       0.18339    0.42467    0.82378    1.000
    N691     N        0.22538    0.42588    0.84296    1.000
    Si692    Si       0.23704    0.47072    0.85008    1.000
    Si693    Si       0.09751    0.46091    0.95278    1.000
    Si694    Si       0.00166    0.45612    0.93298    1.000
    N695     N        0.01256    0.43449    0.98924    1.000
    N696     N        0.02248    0.42831    0.90711    1.000
    N697     N        0.07633    0.47570    0.99106    1.000
    N698     N        0.07673    0.42341    0.95133    1.000
    N699     N        0.13787    0.47464    0.96046    1.000
    Si700    Si       0.16330    0.43790    0.94109    1.000
    N701     N        0.12834    0.42697    0.91539    1.000
    Si702    Si       0.12785    0.44109    0.87315    1.000
    N703     N        0.19705    0.46619    0.93780    1.000
    Si704    Si       0.22417    0.46216    0.97337    1.000
    N705     N        0.23750    0.41987    0.97013    1.000
    N706     N        0.04233    0.51308    0.08889    1.000
    Si707    Si       0.08468    0.51815    0.07439    1.000
    N708     N        0.01713    0.52244    0.00799    1.000
    Si709    Si       0.00939    0.48744    0.07465    1.000
    Si710    Si       0.09476    0.51213    0.00486    1.000
    N711     N        0.07644    0.53604    0.03483    1.000
    N712     N        0.13526    0.50261    0.02357    1.000
    N713     N        0.17196    0.49824    0.09490    1.000
    N714     N        0.22954    0.52807    0.04836    1.000
    Si715    Si       0.22268    0.52809    0.00461    1.000
    Si716    Si       0.14435    0.48044    0.06108    1.000
    N717     N        0.04120    0.48287    0.25013    1.000
    N718     N        0.08798    0.50215    0.20608    1.000
    Si719    Si       0.06872    0.49845    0.16629    1.000
    Si720    Si       0.01376    0.50006    0.21710    1.000
    N721     N        0.02594    0.48943    0.17569    1.000
    N722     N        0.06535    0.53922    0.14985    1.000
    N723     N        0.15358    0.49536    0.21855    1.000
    N724     N        0.21075    0.52081    0.17337    1.000
    Si725    Si       0.11910    0.52015    0.23064    1.000
    N726     N        0.22108    0.48616    0.23123    1.000
    Si727    Si       0.19262    0.49000    0.19675    1.000
    Si728    Si       0.06108    0.51184    0.27446    1.000
    N729     N        0.05335    0.51311    0.31629    1.000
    N730     N        0.00643    0.52229    0.35532    1.000
    N731     N        0.10221    0.49790    0.26889    1.000
    Si732    Si       0.06871    0.49097    0.35208    1.000
    N733     N        0.99180    0.47932    0.29584    1.000
    N734     N        0.23860    0.53279    0.28376    1.000
    N735     N        0.21040    0.49964    0.34068    1.000
    Si736    Si       0.12512    0.48932    0.30608    1.000
    N737     N        0.13596    0.53138    0.31881    1.000
    Si738    Si       0.99266    0.51081    0.44754    1.000
    N739     N        0.99398    0.51977    0.49288    1.000
    N740     N        0.03391    0.52654    0.44584    1.000
    N741     N        0.05894    0.48947    0.39774    1.000
    Si742    Si       0.03607    0.53221    0.48906    1.000
    Si743    Si       0.06067    0.53114    0.40996    1.000
    N744     N        0.09940    0.53607    0.43023    1.000
    Si745    Si       0.12940    0.50604    0.42832    1.000
    Si746    Si       0.19147    0.51359    0.37939    1.000
    N747     N        0.21317    0.49608    0.49018    1.000
    N748     N        0.14774    0.50845    0.38620    1.000
    N749     N        0.15274    0.51123    0.46326    1.000
    Si750    Si       0.18861    0.48777    0.45644    1.000
    N751     N        0.20670    0.49559    0.41575    1.000
    N752     N        0.06339    0.51003    0.51239    1.000
    N753     N        0.06192    0.48802    0.58564    1.000
    Si754    Si       0.06915    0.53067    0.60240    1.000
    N755     N        0.11229    0.52246    0.60194    1.000
    Si756    Si       0.10649    0.48209    0.59110    1.000
    Si757    Si       0.19378    0.49758    0.52905    1.000
    N758     N        0.21116    0.51078    0.56888    1.000
    Si759    Si       0.21356    0.49572    0.61012    1.000
    N760     N        0.17061    0.53594    0.52741    1.000
    N761     N        0.02572    0.50962    0.70661    1.000
    Si762    Si       0.04809    0.49677    0.67138    1.000
    Si763    Si       0.11153    0.49503    0.71629    1.000
    N764     N        0.05103    0.53149    0.64155    1.000
    N765     N        0.08758    0.51389    0.74592    1.000
    N766     N        0.17858    0.51246    0.62990    1.000
    N767     N        0.13861    0.51617    0.69107    1.000
    N768     N        0.20567    0.50273    0.68762    1.000
    Si769    Si       0.16882    0.49594    0.66842    1.000
    N770     N        0.06719    0.51016    0.85847    1.000
    Si771    Si       0.06205    0.49966    0.77820    1.000
    N772     N        0.00030    0.53492    0.85533    1.000
    N773     N        0.04454    0.53431    0.79882    1.000
    N774     N        0.09222    0.47920    0.80186    1.000
    Si775    Si       0.16712    0.49429    0.84312    1.000
    N776     N        0.20243    0.49147    0.86815    1.000
    N777     N        0.16457    0.53604    0.83547    1.000
    Si778    Si       0.23871    0.53373    0.75489    1.000
    N779     N        0.23714    0.49211    0.74857    1.000
    N780     N        0.13303    0.48442    0.86814    1.000
    N781     N        0.02417    0.48576    0.95484    1.000
    Si782    Si       0.99793    0.52512    0.89933    1.000
    Si783    Si       0.10130    0.50997    0.88598    1.000
    N784     N        0.08408    0.48645    0.91873    1.000
    Si785    Si       0.05545    0.51172    0.94015    1.000
    N786     N        0.08679    0.53183    0.96498    1.000
    N787     N        0.99224    0.48126    0.89693    1.000
    N788     N        0.17506    0.53542    0.91151    1.000
    Si789    Si       0.20253    0.50117    0.91113    1.000
    Si790    Si       0.16207    0.49537    0.98951    1.000
    N791     N        0.18539    0.53028    0.98004    1.000
    N792     N        0.05663    0.58383    0.10106    1.000
    Si793    Si       0.04122    0.55704    0.02108    1.000
    N794     N        0.01445    0.57887    0.04722    1.000
    Si795    Si       0.09917    0.58476    0.10008    1.000
    N796     N        0.99915    0.56529    0.11490    1.000
    Si797    Si       0.01814    0.59491    0.08789    1.000
    Si798    Si       0.03812    0.54575    0.11505    1.000
    N799     N        0.11533    0.54417    0.09373    1.000
    N800     N        0.17803    0.57162    0.07273    1.000
    Si801    Si       0.22086    0.56658    0.07022    1.000
    N802     N        0.23156    0.55683    0.11228    1.000
    Si803    Si       0.15883    0.54157    0.09991    1.000
    Si804    Si       0.07834    0.57690    0.16762    1.000
    Si805    Si       0.05397    0.58129    0.22566    1.000
    N806     N        0.09437    0.57965    0.20858    1.000
    N807     N        0.03937    0.59380    0.18415    1.000
    N808     N        0.99711    0.53930    0.21377    1.000
    N809     N        0.10797    0.59475    0.14204    1.000
    N810     N        0.16788    0.56047    0.13766    1.000
    Si811    Si       0.20961    0.55683    0.15097    1.000
    N812     N        0.21083    0.58232    0.23710    1.000
    Si813    Si       0.13315    0.59150    0.22468    1.000
    N814     N        0.22346    0.58863    0.17666    1.000
    N815     N        0.03291    0.58062    0.31851    1.000
    N816     N        0.05415    0.55315    0.25983    1.000
    Si817    Si       0.04090    0.54747    0.34486    1.000
    Si818    Si       0.06188    0.59214    0.28748    1.000
    N819     N        0.10517    0.59189    0.29225    1.000
    N820     N        0.08101    0.53665    0.36504    1.000
    Si821    Si       0.13915    0.56213    0.29049    1.000
    Si822    Si       0.21692    0.57142    0.27894    1.000
    N823     N        0.18098    0.57761    0.30278    1.000
    Si824    Si       0.18192    0.57888    0.34677    1.000
    N825     N        0.14045    0.57944    0.36241    1.000
    Si826    Si       0.12471    0.53846    0.36095    1.000
    N827     N        0.13971    0.55424    0.24727    1.000
    Si828    Si       0.10428    0.57424    0.44807    1.000
    N829     N        0.03216    0.56767    0.38908    1.000
    Si830    Si       0.99143    0.54902    0.38823    1.000
    N831     N        0.06571    0.59296    0.44416    1.000
    Si832    Si       0.22037    0.59394    0.39341    1.000
    N833     N        0.20120    0.55698    0.38047    1.000
    Si834    Si       0.15713    0.54652    0.48872    1.000
    N835     N        0.18704    0.57345    0.47142    1.000
    N836     N        0.12014    0.57184    0.48989    1.000
    N837     N        0.13412    0.59940    0.42898    1.000
    Si838    Si       0.02241    0.57592    0.54984    1.000
    N839     N        0.05173    0.55874    0.57642    1.000
    N840     N        0.03429    0.57171    0.50603    1.000
    N841     N        0.17160    0.56871    0.58845    1.000
    Si842    Si       0.20587    0.55548    0.56277    1.000
    Si843    Si       0.14915    0.54253    0.61509    1.000
    Si844    Si       0.21757    0.58841    0.49921    1.000
    N845     N        0.24389    0.57207    0.58221    1.000
    N846     N        0.19821    0.59670    0.53745    1.000
    Si847    Si       0.00738    0.55083    0.70836    1.000
    Si848    Si       0.03110    0.57219    0.64381    1.000
    N849     N        0.03945    0.57289    0.72982    1.000
    N850     N        0.99636    0.56207    0.66815    1.000
    N851     N        0.10984    0.57391    0.71511    1.000
    N852     N        0.06210    0.59485    0.66027    1.000
    N853     N        0.13733    0.57129    0.64741    1.000
    Si854    Si       0.13862    0.55934    0.68891    1.000
    N855     N        0.17850    0.57011    0.70071    1.000
    N856     N        0.22407    0.57218    0.65774    1.000
    Si857    Si       0.21340    0.54462    0.68806    1.000
    N858     N        0.05223    0.58329    0.85640    1.000
    N859     N        0.09013    0.58075    0.78000    1.000
    Si860    Si       0.04782    0.56986    0.77490    1.000
    Si861    Si       0.10842    0.55318    0.75198    1.000
    Si862    Si       0.04137    0.54200    0.84220    1.000
    Si863    Si       0.17107    0.56050    0.79981    1.000
    N864     N        0.21079    0.55257    0.78276    1.000
    N865     N        0.14705    0.54693    0.76689    1.000
    N866     N        0.15264    0.59881    0.80946    1.000
    Si867    Si       0.08718    0.58530    0.88324    1.000
    Si868    Si       0.08886    0.57423    0.96051    1.000
    Si869    Si       0.02857    0.58783    0.91952    1.000
    N870     N        0.00281    0.59100    0.95512    1.000
    N871     N        0.06014    0.58534    0.99226    1.000
    N872     N        0.11387    0.55109    0.88452    1.000
    N873     N        0.07273    0.59604    0.92475    1.000
    N874     N        0.03272    0.54262    0.91656    1.000
    Si875    Si       0.15735    0.55397    0.87505    1.000
    Si876    Si       0.16833    0.55628    0.95122    1.000
    N877     N        0.23508    0.56810    0.99581    1.000
    N878     N        0.13176    0.57658    0.96102    1.000
    N879     N        0.23298    0.56908    0.88612    1.000
    N880     N        0.16779    0.59578    0.87888    1.000
    N881     N        0.01012    0.63571    0.00961    1.000
    Si882    Si       0.09639    0.64842    0.05891    1.000
    N883     N        0.99283    0.62881    0.07963    1.000
    N884     N        0.07966    0.65132    0.01957    1.000
    N885     N        0.07010    0.65757    0.09078    1.000
    N886     N        0.11927    0.61210    0.07240    1.000
    Si887    Si       0.22594    0.63606    0.04295    1.000
    N888     N        0.18480    0.63493    0.05629    1.000
    Si889    Si       0.16243    0.61103    0.08216    1.000
    N890     N        0.21808    0.63458    0.99945    1.000
    N891     N        0.16452    0.62738    0.12365    1.000
    N892     N        0.99870    0.64680    0.15236    1.000
    Si893    Si       0.00176    0.61458    0.18213    1.000
    Si894    Si       0.19903    0.61211    0.20443    1.000
    Si895    Si       0.15004    0.59729    0.15154    1.000
    N896     N        0.15911    0.60264    0.19272    1.000
    N897     N        0.20618    0.65198    0.22547    1.000
    Si898    Si       0.01705    0.62279    0.31874    1.000
    N899     N        0.06258    0.63444    0.30888    1.000
    Si900    Si       0.08695    0.64347    0.34344    1.000
    N901     N        0.05074    0.61535    0.25254    1.000
    N902     N        0.00281    0.65507    0.34603    1.000
    Si903    Si       0.99723    0.65309    0.25057    1.000
    Si904    Si       0.05526    0.65653    0.26769    1.000
    Si905    Si       0.11365    0.63517    0.28477    1.000
    Si906    Si       0.22775    0.62872    0.32108    1.000
    N907     N        0.20903    0.61156    0.35480    1.000
    N908     N        0.20647    0.64571    0.28716    1.000
    N909     N        0.14406    0.62552    0.25169    1.000
    Si910    Si       0.17656    0.65336    0.25828    1.000
    N911     N        0.12655    0.64970    0.32399    1.000
    N912     N        0.08465    0.61465    0.37585    1.000
    Si913    Si       0.05105    0.60402    0.40573    1.000
    Si914    Si       0.99682    0.64356    0.44278    1.000
    N915     N        0.02636    0.63888    0.41055    1.000
    N916     N        0.02134    0.63986    0.48068    1.000
    Si917    Si       0.04889    0.60497    0.48209    1.000
    Si918    Si       0.12807    0.61368    0.38716    1.000
    N919     N        0.19903    0.62027    0.42211    1.000
    Si920    Si       0.16952    0.60733    0.45363    1.000
    N921     N        0.15387    0.63412    0.48430    1.000
    N922     N        0.14770    0.65337    0.38396    1.000
    N923     N        0.00958    0.61769    0.54841    1.000
    Si924    Si       0.10106    0.63932    0.57309    1.000
    N925     N        0.10295    0.62574    0.61484    1.000
    Si926    Si       0.99440    0.64553    0.51557    1.000
    N927     N        0.06007    0.65108    0.58144    1.000
    Si928    Si       0.99674    0.62697    0.58794    1.000
    N929     N        0.02006    0.60679    0.61688    1.000
    N930     N        0.08283    0.62941    0.49520    1.000
    Si931    Si       0.12238    0.61399    0.50696    1.000
    N932     N        0.12586    0.61100    0.55007    1.000
    N933     N        0.17737    0.64467    0.58673    1.000
    Si934    Si       0.16671    0.60717    0.56751    1.000
    Si935    Si       0.20099    0.65132    0.62168    1.000
    Si936    Si       0.05909    0.62894    0.62341    1.000
    Si937    Si       0.08317    0.60359    0.69676    1.000
    N938     N        0.05560    0.63443    0.71505    1.000
    Si939    Si       0.02566    0.61357    0.73637    1.000
    N940     N        0.22065    0.63092    0.70125    1.000
    N941     N        0.11623    0.63023    0.68168    1.000
    Si942    Si       0.19907    0.60168    0.67765    1.000
    Si943    Si       0.13308    0.61542    0.64429    1.000
    N944     N        0.17761    0.62368    0.64706    1.000
    Si945    Si       0.02665    0.62098    0.85624    1.000
    N946     N        0.02454    0.60630    0.77971    1.000
    N947     N        0.05056    0.65471    0.83875    1.000
    Si948    Si       0.99390    0.63109    0.79641    1.000
    N949     N        0.11141    0.64723    0.81456    1.000
    N950     N        0.10609    0.62293    0.87291    1.000
    Si951    Si       0.11879    0.61394    0.78561    1.000
    Si952    Si       0.23148    0.63838    0.80070    1.000
    Si953    Si       0.14571    0.62167    0.85067    1.000
    N954     N        0.23032    0.60374    0.82474    1.000
    N955     N        0.11821    0.64030    0.75078    1.000
    N956     N        0.17299    0.65592    0.84687    1.000
    N957     N        0.20828    0.65619    0.76646    1.000
    Si958    Si       0.07939    0.64300    0.92296    1.000
    N959     N        0.01993    0.62788    0.89836    1.000
    Si960    Si       0.03273    0.61594    0.97755    1.000
    N961     N        0.05052    0.65113    0.95615    1.000
    N962     N        0.22679    0.63169    0.88950    1.000
    N963     N        0.11969    0.64196    0.93898    1.000
    Si964    Si       0.14921    0.61637    0.95768    1.000
    Si965    Si       0.22246    0.60201    0.97338    1.000
    N966     N        0.15354    0.64896    0.99123    1.000
    Si967    Si       0.20294    0.59626    0.90408    1.000
    N968     N        0.18805    0.59583    0.94630    1.000
    N969     N        0.00010    0.69760    0.11073    1.000
    Si970    Si       0.07164    0.68989    0.11778    1.000
    N971     N        0.03053    0.70323    0.99982    1.000
    Si972    Si       0.22554    0.70894    0.03387    1.000
    N973     N        0.13011    0.67756    0.05675    1.000
    N974     N        0.19150    0.69368    0.01479    1.000
    Si975    Si       0.13883    0.70262    0.09159    1.000
    N976     N        0.18122    0.69534    0.10368    1.000
    Si977    Si       0.16411    0.66387    0.03243    1.000
    N978     N        0.99160    0.71329    0.18337    1.000
    N979     N        0.03368    0.67109    0.22696    1.000
    Si980    Si       0.01033    0.68927    0.15398    1.000
    N981     N        0.05269    0.69026    0.15810    1.000
    Si982    Si       0.06502    0.69329    0.20002    1.000
    N983     N        0.10637    0.68679    0.20444    1.000
    Si984    Si       0.00640    0.71262    0.22459    1.000
    Si985    Si       0.21081    0.68260    0.19449    1.000
    N986     N        0.22378    0.65789    0.15852    1.000
    Si987    Si       0.12234    0.69789    0.24524    1.000
    N988     N        0.11442    0.69405    0.12930    1.000
    Si989    Si       0.18764    0.66400    0.13475    1.000
    N990     N        0.17261    0.69063    0.16856    1.000
    Si991    Si       0.12995    0.69944    0.17024    1.000
    N992     N        0.02004    0.67746    0.28606    1.000
    N993     N        0.09558    0.67086    0.26691    1.000
    N994     N        0.06536    0.67568    0.36193    1.000
    Si995    Si       0.98887    0.68356    0.31687    1.000
    Si996    Si       0.14847    0.67811    0.34680    1.000
    N997     N        0.16171    0.69286    0.26315    1.000
    N998     N        0.18075    0.70649    0.33257    1.000
    N999     N        0.98684    0.68550    0.44242    1.000
    Si1000   Si       0.02680    0.67022    0.38031    1.000
    N1001    N        0.05447    0.69622    0.45631    1.000
    Si1002   Si       0.05820    0.66598    0.48859    1.000
    N1003    N        0.01891    0.71079    0.39044    1.000
    Si1004   Si       0.02007    0.71368    0.43507    1.000
    N1005    N        0.17954    0.68747    0.44339    1.000
    N1006    N        0.21177    0.68283    0.38415    1.000
    Si1007   Si       0.18474    0.65906    0.40761    1.000
    N1008    N        0.11772    0.69432    0.48464    1.000
    Si1009   Si       0.15812    0.67601    0.48111    1.000
    Si1010   Si       0.04072    0.68430    0.56119    1.000
    N1011    N        0.06442    0.68493    0.52516    1.000
    N1012    N        0.99979    0.68311    0.53782    1.000
    Si1013   Si       0.10564    0.69875    0.52567    1.000
    N1014    N        0.99532    0.66877    0.59995    1.000
    N1015    N        0.12089    0.67414    0.55675    1.000
    Si1016   Si       0.16360    0.67835    0.56176    1.000
    N1017    N        0.18062    0.68315    0.52050    1.000
    Si1018   Si       0.22292    0.69542    0.52749    1.000
    N1019    N        0.23101    0.68318    0.56857    1.000
    N1020    N        0.17178    0.71656    0.58105    1.000
    N1021    N        0.09685    0.68909    0.70242    1.000
    Si1022   Si       0.05930    0.67180    0.69346    1.000
    Si1023   Si       0.01008    0.67912    0.63904    1.000
    N1024    N        0.02789    0.69578    0.71149    1.000
    N1025    N        0.04876    0.66272    0.65014    1.000
    N1026    N        0.23915    0.69004    0.71585    1.000
    Si1027   Si       0.12775    0.65888    0.71286    1.000
    N1028    N        0.20435    0.68478    0.64857    1.000
    Si1029   Si       0.20412    0.67005    0.68953    1.000
    N1030    N        0.16717    0.67581    0.71313    1.000
    Si1031   Si       0.04080    0.68515    0.80758    1.000
    N1032    N        0.07436    0.69714    0.78047    1.000
    N1033    N        0.00477    0.67227    0.79159    1.000
    Si1034   Si       0.11001    0.67388    0.77882    1.000
    Si1035   Si       0.08996    0.66211    0.85458    1.000
    N1036    N        0.23584    0.67141    0.82818    1.000
    N1037    N        0.11868    0.69819    0.84838    1.000
    Si1038   Si       0.15461    0.68925    0.82692    1.000
    N1039    N        0.14738    0.69585    0.78253    1.000
    Si1040   Si       0.21011    0.66607    0.86380    1.000
    Si1041   Si       0.18027    0.68794    0.75370    1.000
    N1042    N        0.00662    0.69554    0.90238    1.000
    N1043    N        0.10053    0.69946    0.97662    1.000
    N1044    N        0.07194    0.67661    0.89585    1.000
    Si1045   Si       0.06477    0.67646    0.98938    1.000
    Si1046   Si       0.04297    0.71355    0.88219    1.000
    Si1047   Si       0.01429    0.66108    0.92678    1.000
    Si1048   Si       0.99696    0.67591    0.99850    1.000
    Si1049   Si       0.20699    0.70854    0.92839    1.000
    N1050    N        0.22811    0.67553    0.94723    1.000
    N1051    N        0.21238    0.70217    0.88574    1.000
    Si1052   Si       0.13344    0.67580    0.96538    1.000
    N1053    N        0.16883    0.69651    0.94793    1.000
    Si1054   Si       0.19722    0.66922    0.97826    1.000
    N1055    N        0.07510    0.74606    0.02376    1.000
    N1056    N        0.00571    0.74864    0.05337    1.000
    Si1057   Si       0.03059    0.74329    0.01791    1.000
    Si1058   Si       0.01796    0.73388    0.09422    1.000
    Si1059   Si       0.08562    0.74765    0.06413    1.000
    N1060    N        0.06060    0.72312    0.09170    1.000
    N1061    N        0.12699    0.74364    0.08186    1.000
    N1062    N        0.21426    0.73980    0.06200    1.000
    Si1063   Si       0.21430    0.72405    0.10241    1.000
    N1064    N        0.01733    0.76838    0.12085    1.000
    N1065    N        0.05088    0.72866    0.21993    1.000
    Si1066   Si       0.07567    0.75930    0.24036    1.000
    N1067    N        0.99215    0.75083    0.23919    1.000
    Si1068   Si       0.18454    0.73614    0.16691    1.000
    N1069    N        0.21677    0.72455    0.19722    1.000
    N1070    N        0.13996    0.74251    0.17567    1.000
    N1071    N        0.19960    0.75466    0.13127    1.000
    N1072    N        0.05755    0.74641    0.34576    1.000
    Si1073   Si       0.01450    0.74201    0.36186    1.000
    N1074    N        0.05463    0.77223    0.27627    1.000
    N1075    N        0.11311    0.73922    0.24905    1.000
    N1076    N        0.98716    0.72681    0.33047    1.000
    Si1077   Si       0.08063    0.71573    0.36789    1.000
    N1078    N        0.11526    0.77142    0.31234    1.000
    Si1079   Si       0.14181    0.75246    0.34403    1.000
    N1080    N        0.17655    0.75820    0.27746    1.000
    Si1081   Si       0.22025    0.76645    0.27499    1.000
    Si1082   Si       0.20373    0.72586    0.36426    1.000
    N1083    N        0.22757    0.72317    0.27690    1.000
    Si1084   Si       0.13560    0.76983    0.27227    1.000
    N1085    N        0.18168    0.77241    0.34631    1.000
    N1086    N        0.12076    0.71336    0.35007    1.000
    Si1087   Si       0.18636    0.71592    0.29011    1.000
    N1088    N        0.01165    0.75636    0.44031    1.000
    N1089    N        0.08377    0.72678    0.40877    1.000
    Si1090   Si       0.10281    0.76570    0.41354    1.000
    N1091    N        0.07285    0.75692    0.47924    1.000
    Si1092   Si       0.09266    0.72076    0.45751    1.000
    N1093    N        0.12652    0.74827    0.44719    1.000
    N1094    N        0.19064    0.75155    0.47501    1.000
    Si1095   Si       0.20076    0.72758    0.43939    1.000
    N1096    N        0.18636    0.74362    0.40104    1.000
    N1097    N        0.12997    0.77313    0.37997    1.000
    Si1098   Si       0.01368    0.74032    0.60258    1.000
    Si1099   Si       0.07850    0.75254    0.56801    1.000
    N1100    N        0.04707    0.72503    0.57894    1.000
    N1101    N        0.11108    0.75355    0.59850    1.000
    N1102    N        0.11145    0.73930    0.53915    1.000
    Si1103   Si       0.09856    0.77274    0.50919    1.000
    N1104    N        0.23395    0.74296    0.61339    1.000
    N1105    N        0.22239    0.73712    0.53960    1.000
    Si1106   Si       0.14303    0.74615    0.56965    1.000
    Si1107   Si       0.21534    0.72422    0.58068    1.000
    Si1108   Si       0.21995    0.76221    0.50502    1.000
    Si1109   Si       0.02834    0.73851    0.71419    1.000
    Si1110   Si       0.10017    0.73159    0.69902    1.000
    N1111    N        0.06210    0.75416    0.68730    1.000
    N1112    N        0.00528    0.72469    0.64094    1.000
    N1113    N        0.10391    0.75080    0.73910    1.000
    N1114    N        0.99625    0.76215    0.69768    1.000
    Si1115   Si       0.12235    0.76867    0.63683    1.000
    Si1116   Si       0.22935    0.72130    0.65084    1.000
    N1117    N        0.13158    0.74223    0.67051    1.000
    N1118    N        0.20896    0.74859    0.68009    1.000
    Si1119   Si       0.07565    0.73946    0.77036    1.000
    N1120    N        0.08198    0.76210    0.80719    1.000
    Si1121   Si       0.05482    0.75957    0.84279    1.000
    Si1122   Si       0.99715    0.74461    0.83638    1.000
    N1123    N        0.03774    0.75527    0.75455    1.000
    N1124    N        0.03442    0.71845    0.83542    1.000
    Si1125   Si       0.18810    0.74531    0.79493    1.000
    Si1126   Si       0.21561    0.73591    0.85643    1.000
    N1127    N        0.20270    0.72548    0.75953    1.000
    N1128    N        0.18262    0.72269    0.83155    1.000
    Si1129   Si       0.11981    0.73746    0.86598    1.000
    N1130    N        0.01678    0.75742    0.87744    1.000
    N1131    N        0.07716    0.74262    0.87724    1.000
    Si1132   Si       0.09053    0.76214    0.91359    1.000
    N1133    N        0.07394    0.75879    0.95393    1.000
    Si1134   Si       0.09793    0.74235    0.98666    1.000
    Si1135   Si       0.15630    0.74015    0.94383    1.000
    N1136    N        0.19789    0.75120    0.93636    1.000
    N1137    N        0.13735    0.75832    0.97838    1.000
    N1138    N        0.13049    0.74279    0.90869    1.000
    Si1139   Si       0.00954    0.81829    0.01955    1.000
    N1140    N        0.08229    0.79162    0.07792    1.000
    Si1141   Si       0.11355    0.77851    0.10564    1.000
    N1142    N        0.02272    0.78181    0.99677    1.000
    Si1143   Si       0.20727    0.79313    0.11442    1.000
    Si1144   Si       0.15567    0.82353    0.06711    1.000
    N1145    N        0.19503    0.80597    0.07277    1.000
    N1146    N        0.13897    0.80774    0.03101    1.000
    N1147    N        0.13510    0.81520    0.10411    1.000
    N1148    N        0.20149    0.78697    0.00366    1.000
    Si1149   Si       0.21617    0.77987    0.04562    1.000
    Si1150   Si       0.05206    0.81775    0.20762    1.000
    N1151    N        0.02164    0.81886    0.24047    1.000
    Si1152   Si       0.05023    0.79444    0.13195    1.000
    N1153    N        0.03520    0.81605    0.16733    1.000
    N1154    N        0.08244    0.78822    0.20993    1.000
    N1155    N        0.08740    0.77426    0.13968    1.000
    N1156    N        0.19291    0.82504    0.13870    1.000
    Si1157   Si       0.11470    0.82235    0.21642    1.000
    Si1158   Si       0.10957    0.77288    0.17665    1.000
    N1159    N        0.13346    0.81199    0.17680    1.000
    N1160    N        0.23650    0.77878    0.23651    1.000
    N1161    N        0.05358    0.81258    0.33425    1.000
    Si1162   Si       0.01799    0.81930    0.36102    1.000
    Si1163   Si       0.01361    0.78181    0.26428    1.000
    Si1164   Si       0.07053    0.77725    0.31626    1.000
    Si1165   Si       0.19029    0.81482    0.33434    1.000
    N1166    N        0.13402    0.80780    0.25143    1.000
    N1167    N        0.00117    0.78097    0.37473    1.000
    N1168    N        0.03086    0.81652    0.46807    1.000
    N1169    N        0.07141    0.79400    0.41824    1.000
    Si1170   Si       0.04472    0.77978    0.45322    1.000
    Si1171   Si       0.15494    0.77423    0.46518    1.000
    Si1172   Si       0.16991    0.78508    0.39234    1.000
    N1173    N        0.16697    0.80235    0.43267    1.000
    N1174    N        0.17209    0.82805    0.37606    1.000
    N1175    N        0.07440    0.78903    0.54356    1.000
    Si1176   Si       0.02780    0.82336    0.61571    1.000
    Si1177   Si       0.05423    0.82649    0.54924    1.000
    N1178    N        0.02014    0.78241    0.60117    1.000
    Si1179   Si       0.16826    0.80413    0.53007    1.000
    N1180    N        0.21039    0.80335    0.51707    1.000
    Si1181   Si       0.16982    0.80663    0.60158    1.000
    N1182    N        0.16919    0.78044    0.56679    1.000
    N1183    N        0.13691    0.79045    0.50228    1.000
    N1184    N        0.03416    0.82095    0.65825    1.000
    N1185    N        0.09869    0.80368    0.64520    1.000
    N1186    N        0.08565    0.81336    0.71118    1.000
    Si1187   Si       0.06754    0.79687    0.67518    1.000
    Si1188   Si       0.11531    0.79457    0.73666    1.000
    Si1189   Si       0.18099    0.82211    0.72194    1.000
    N1190    N        0.15262    0.79107    0.71336    1.000
    N1191    N        0.20918    0.81186    0.68979    1.000
    N1192    N        0.16420    0.78353    0.63607    1.000
    Si1193   Si       0.23742    0.77960    0.68951    1.000
    Si1194   Si       0.16936    0.76897    0.67814    1.000
    Si1195   Si       0.01187    0.81953    0.84785    1.000
    Si1196   Si       0.02215    0.79042    0.77909    1.000
    N1197    N        0.02320    0.78616    0.82285    1.000
    N1198    N        0.11144    0.81655    0.77632    1.000
    N1199    N        0.04183    0.82744    0.76549    1.000
    Si1200   Si       0.18701    0.80732    0.79366    1.000
    Si1201   Si       0.16886    0.79838    0.85968    1.000
    N1202    N        0.17161    0.82797    0.82798    1.000
    Si1203   Si       0.11946    0.78442    0.80751    1.000
    N1204    N        0.20332    0.82236    0.75727    1.000
    N1205    N        0.21653    0.77532    0.80892    1.000
    N1206    N        0.15758    0.77471    0.78705    1.000
    N1207    N        0.13316    0.77567    0.84865    1.000
    Si1208   Si       0.04777    0.79435    0.96465    1.000
    N1209    N        0.09468    0.80352    0.90369    1.000
    N1210    N        0.02583    0.80438    0.92865    1.000
    Si1211   Si       0.99660    0.78205    0.90652    1.000
    N1212    N        0.07069    0.82841    0.97551    1.000
    Si1213   Si       0.22356    0.77577    0.91279    1.000
    Si1214   Si       0.23262    0.80351    0.97663    1.000
    N1215    N        0.16352    0.82548    0.89380    1.000
    N1216    N        0.15926    0.81980    0.96234    1.000
    N1217    N        0.22235    0.81421    0.93302    1.000
    Si1218   Si       0.15826    0.79302    0.99478    1.000
    N1219    N        0.20299    0.77536    0.87484    1.000
    N1220    N        0.08826    0.87670    0.07536    1.000
    Si1221   Si       0.04817    0.86477    0.00709    1.000
    N1222    N        0.04550    0.83467    0.03981    1.000
    N1223    N        0.04906    0.83393    0.11140    1.000
    Si1224   Si       0.07130    0.83373    0.07398    1.000
    N1225    N        0.15845    0.86639    0.06748    1.000
    Si1226   Si       0.12766    0.88636    0.09460    1.000
    N1227    N        0.23457    0.88051    0.05144    1.000
    Si1228   Si       0.99146    0.84952    0.23553    1.000
    N1229    N        0.08139    0.85037    0.21294    1.000
    N1230    N        0.00930    0.88246    0.15379    1.000
    Si1231   Si       0.01754    0.84367    0.13967    1.000
    N1232    N        0.01016    0.88997    0.22209    1.000
    N1233    N        0.19878    0.88180    0.17359    1.000
    Si1234   Si       0.14929    0.83145    0.14098    1.000
    Si1235   Si       0.22394    0.85346    0.15164    1.000
    N1236    N        0.13926    0.87398    0.13549    1.000
    N1237    N        0.21617    0.85044    0.23628    1.000
    Si1238   Si       0.21799    0.88635    0.21163    1.000
    Si1239   Si       0.08011    0.84696    0.33858    1.000
    N1240    N        0.10640    0.84438    0.30426    1.000
    N1241    N        0.05863    0.88712    0.34056    1.000
    N1242    N        0.99385    0.84334    0.33361    1.000
    Si1243   Si       0.19782    0.86193    0.27305    1.000
    N1244    N        0.15478    0.87458    0.26109    1.000
    Si1245   Si       0.13963    0.83933    0.28082    1.000
    N1246    N        0.22952    0.83908    0.34042    1.000
    N1247    N        0.17891    0.83118    0.29747    1.000
    N1248    N        0.14072    0.88994    0.34401    1.000
    N1249    N        0.10151    0.84365    0.37615    1.000
    Si1250   Si       0.03042    0.88960    0.37553    1.000
    Si1251   Si       0.05934    0.85044    0.47349    1.000
    N1252    N        0.03706    0.84875    0.38952    1.000
    N1253    N        0.09403    0.85070    0.44500    1.000
    N1254    N        0.03634    0.88552    0.46497    1.000
    Si1255   Si       0.07433    0.83518    0.40873    1.000
    Si1256   Si       0.17715    0.84495    0.42820    1.000
    Si1257   Si       0.12857    0.87399    0.45289    1.000
    N1258    N        0.22212    0.84849    0.42222    1.000
    Si1259   Si       0.14106    0.86170    0.37513    1.000
    N1260    N        0.23002    0.86444    0.48822    1.000
    N1261    N        0.15026    0.87983    0.41431    1.000
    N1262    N        0.16597    0.85904    0.46810    1.000
    Si1263   Si       0.24121    0.85060    0.38275    1.000
    N1264    N        0.06841    0.85258    0.51613    1.000
    Si1265   Si       0.00960    0.87086    0.57397    1.000
    N1266    N        0.10793    0.88944    0.55570    1.000
    Si1267   Si       0.09912    0.83624    0.61667    1.000
    N1268    N        0.99414    0.85168    0.61086    1.000
    N1269    N        0.06391    0.83451    0.59160    1.000
    N1270    N        0.01068    0.83236    0.55106    1.000
    N1271    N        0.13734    0.83432    0.59616    1.000
    Si1272   Si       0.14178    0.86723    0.56688    1.000
    N1273    N        0.16426    0.84711    0.53530    1.000
    Si1274   Si       0.18720    0.86901    0.50436    1.000
    N1275    N        0.20491    0.83241    0.60497    1.000
    Si1276   Si       0.18433    0.86716    0.61984    1.000
    N1277    N        0.09740    0.87982    0.62392    1.000
    Si1278   Si       0.00419    0.84832    0.68127    1.000
    Si1279   Si       0.06247    0.84468    0.73065    1.000
    N1280    N        0.03014    0.86529    0.71067    1.000
    N1281    N        0.15755    0.87907    0.65272    1.000
    N1282    N        0.16215    0.85952    0.71993    1.000
    Si1283   Si       0.03246    0.86102    0.79007    1.000
    N1284    N        0.06917    0.86696    0.81245    1.000
    Si1285   Si       0.10296    0.85921    0.78483    1.000
    Si1286   Si       0.07327    0.86995    0.85506    1.000
    N1287    N        0.00019    0.84744    0.81675    1.000
    N1288    N        0.04027    0.84360    0.86925    1.000
    N1289    N        0.08735    0.87644    0.74745    1.000
    N1290    N        0.11537    0.85866    0.85926    1.000
    Si1291   Si       0.15182    0.86658    0.83723    1.000
    N1292    N        0.14071    0.87725    0.79609    1.000
    Si1293   Si       0.22639    0.87089    0.84009    1.000
    N1294    N        0.23190    0.89013    0.75580    1.000
    N1295    N        0.23852    0.84131    0.80775    1.000
    N1296    N        0.18786    0.88927    0.84493    1.000
    Si1297   Si       0.02481    0.84611    0.90997    1.000
    N1298    N        0.05195    0.87400    0.92901    1.000
    Si1299   Si       0.08452    0.86154    0.95550    1.000
    N1300    N        0.00853    0.85000    0.99002    1.000
    N1301    N        0.11758    0.86451    0.92936    1.000
    N1302    N        0.18785    0.87852    0.93503    1.000
    Si1303   Si       0.18265    0.83668    0.93000    1.000
    Si1304   Si       0.12073    0.83770    0.89764    1.000
    N1305    N        0.23683    0.85392    0.87901    1.000
    Si1306   Si       0.00916    0.93162    0.01051    1.000
    N1307    N        0.02683    0.91696    0.09640    1.000
    Si1308   Si       0.05570    0.90465    0.06549    1.000
    N1309    N        0.03166    0.89993    0.02927    1.000
    N1310    N        0.07716    0.94304    0.05904    1.000
    N1311    N        0.13581    0.92855    0.09350    1.000
    N1312    N        0.20055    0.90756    0.09773    1.000
    N1313    N        0.18077    0.91887    0.02540    1.000
    Si1314   Si       0.17461    0.93972    0.11019    1.000
    Si1315   Si       0.19215    0.89219    0.05726    1.000
    Si1316   Si       0.24196    0.89707    0.09298    1.000
    Si1317   Si       0.03704    0.91449    0.14134    1.000
    N1318    N        0.07083    0.92028    0.23363    1.000
    N1319    N        0.07138    0.90191    0.16312    1.000
    Si1320   Si       0.08689    0.89228    0.20284    1.000
    N1321    N        0.19183    0.91732    0.22574    1.000
    N1322    N        0.16338    0.94041    0.15292    1.000
    N1323    N        0.13067    0.89944    0.20095    1.000
    Si1324   Si       0.15025    0.90917    0.23697    1.000
    Si1325   Si       0.15884    0.89993    0.16632    1.000
    Si1326   Si       0.05282    0.92200    0.31700    1.000
    N1327    N        0.02270    0.90724    0.28789    1.000
    N1328    N        0.09283    0.94519    0.32486    1.000
    N1329    N        0.99516    0.90951    0.35135    1.000
    Si1330   Si       0.02779    0.92113    0.24555    1.000
    N1331    N        0.13325    0.94247    0.25733    1.000
    Si1332   Si       0.22574    0.93772    0.29498    1.000
    Si1333   Si       0.12932    0.92972    0.34665    1.000
    N1334    N        0.23279    0.93697    0.33809    1.000
    N1335    N        0.21750    0.89588    0.28773    1.000
    Si1336   Si       0.02324    0.91648    0.43672    1.000
    N1337    N        0.05044    0.91891    0.40266    1.000
    N1338    N        0.11021    0.90133    0.48356    1.000
    Si1339   Si       0.08147    0.95034    0.40549    1.000
    Si1340   Si       0.18802    0.94002    0.48481    1.000
    Si1341   Si       0.11450    0.94424    0.47512    1.000
    N1342    N        0.18738    0.94802    0.39476    1.000
    N1343    N        0.22780    0.93551    0.46800    1.000
    N1344    N        0.15581    0.93728    0.45523    1.000
    N1345    N        0.12045    0.93480    0.39027    1.000
    Si1346   Si       0.15778    0.92519    0.41446    1.000
    N1347    N        0.05874    0.92832    0.52119    1.000
    Si1348   Si       0.02846    0.93763    0.55550    1.000
    N1349    N        0.10739    0.93692    0.60522    1.000
    N1350    N        0.04093    0.90075    0.57771    1.000
    Si1351   Si       0.08205    0.90275    0.58999    1.000
    Si1352   Si       0.08481    0.89297    0.51915    1.000
    N1353    N        0.18523    0.91155    0.51960    1.000
    Si1354   Si       0.18661    0.92336    0.56041    1.000
    N1355    N        0.23269    0.93020    0.57428    1.000
    N1356    N        0.16672    0.89542    0.58996    1.000
    Si1357   Si       0.13305    0.90696    0.62694    1.000
    Si1358   Si       0.02664    0.90447    0.72588    1.000
    Si1359   Si       0.09922    0.91567    0.73178    1.000
    N1360    N        0.06232    0.92611    0.71030    1.000
    N1361    N        0.99586    0.93352    0.71907    1.000
    Si1362   Si       0.23557    0.90570    0.71514    1.000
    Si1363   Si       0.16079    0.89210    0.69430    1.000
    N1364    N        0.15639    0.94359    0.64320    1.000
    N1365    N        0.19852    0.91596    0.69377    1.000
    N1366    N        0.21668    0.89135    0.63407    1.000
    N1367    N        0.13117    0.92313    0.70270    1.000
    Si1368   Si       0.19709    0.92797    0.65023    1.000
    Si1369   Si       0.99838    0.93077    0.79125    1.000
    N1370    N        0.01966    0.89778    0.77061    1.000
    Si1371   Si       0.99888    0.94813    0.86670    1.000
    Si1372   Si       0.10939    0.93199    0.87074    1.000
    N1373    N        0.07148    0.90953    0.87475    1.000
    N1374    N        0.11670    0.93698    0.76550    1.000
    Si1375   Si       0.23078    0.91753    0.78997    1.000
    N1376    N        0.13354    0.92687    0.83510    1.000
    Si1377   Si       0.14722    0.92023    0.79378    1.000
    N1378    N        0.18907    0.93104    0.79007    1.000
    Si1379   Si       0.17642    0.92871    0.86372    1.000
    N1380    N        0.07829    0.94304    0.93844    1.000
    N1381    N        0.01245    0.93400    0.90562    1.000
    Si1382   Si       0.09686    0.92890    0.97501    1.000
    Si1383   Si       0.05150    0.91628    0.91380    1.000
    N1384    N        0.08301    0.89045    0.98976    1.000
    N1385    N        0.20871    0.93509    0.89432    1.000
    Si1386   Si       0.14865    0.89542    0.92962    1.000
    N1387    N        0.14475    0.91822    0.89476    1.000
    Si1388   Si       0.17189    0.93574    0.98769    1.000
    Si1389   Si       0.21514    0.91272    0.93042    1.000
    N1390    N        0.13915    0.91772    0.96489    1.000
    N1391    N        0.20734    0.94192    0.96133    1.000
    Si1392   Si       0.06884    0.97293    0.02921    1.000
    N1393    N        0.02155    0.99500    0.11190    1.000
    Si1394   Si       0.10628    0.95855    0.08627    1.000
    N1395    N        0.03106    0.96863    0.00738    1.000
    Si1396   Si       0.10818    0.00932    0.12260    1.000
    Si1397   Si       0.17202    0.00728    0.08369    1.000
    N1398    N        0.19699    0.97297    0.09583    1.000
    N1399    N        0.13101    0.99582    0.08513    1.000
    Si1400   Si       0.23822    0.97085    0.08608    1.000
    N1401    N        0.08597    0.96955    0.12368    1.000
    Si1402   Si       0.05121    0.98417    0.14374    1.000
    Si1403   Si       0.09805    0.95439    0.23586    1.000
    N1404    N        0.10698    0.97116    0.19589    1.000
    N1405    N        0.00580    0.95963    0.23632    1.000
    Si1406   Si       0.99458    0.95843    0.19359    1.000
    N1407    N        0.02212    0.95116    0.15924    1.000
    N1408    N        0.08015    0.99346    0.24819    1.000
    N1409    N        0.17036    0.98128    0.20805    1.000
    N1410    N        0.23930    0.96544    0.21210    1.000
    Si1411   Si       0.20051    0.95934    0.23024    1.000
    Si1412   Si       0.14491    0.97179    0.17571    1.000
    Si1413   Si       0.06958    0.98140    0.33574    1.000
    N1414    N        0.03298    0.96032    0.32718    1.000
    Si1415   Si       0.15655    0.96480    0.28909    1.000
    N1416    N        0.20787    1.00000    0.35880    1.000
    N1417    N        0.19739    0.96380    0.27355    1.000
    N1418    N        0.13485    0.00276    0.28987    1.000
    Si1419   Si       0.20033    0.95870    0.35191    1.000
    N1420    N        0.16339    0.95120    0.32965    1.000
    N1421    N        0.08739    0.96306    0.44759    1.000
    Si1422   Si       0.05345    0.98522    0.46340    1.000
    N1423    N        0.06900    0.98407    0.38047    1.000
    N1424    N        0.02242    0.95311    0.45760    1.000
    N1425    N        0.20800    0.99974    0.43664    1.000
    Si1426   Si       0.18924    0.99240    0.39990    1.000
    Si1427   Si       0.07664    0.96881    0.52738    1.000
    N1428    N        0.06166    0.96892    0.56889    1.000
    Si1429   Si       0.07795    0.96861    0.60912    1.000
    N1430    N        0.05427    0.99956    0.50671    1.000
    N1431    N        0.10819    0.99913    0.61473    1.000
    N1432    N        0.99811    0.95588    0.52520    1.000
    N1433    N        0.99665    0.95172    0.58745    1.000
    N1434    N        0.11639    0.96514    0.51377    1.000
    Si1435   Si       0.15364    0.98106    0.52932    1.000
    Si1436   Si       0.14065    0.96964    0.60564    1.000
    N1437    N        0.18966    0.97785    0.50598    1.000
    N1438    N        0.16344    0.95953    0.56868    1.000
    N1439    N        0.17125    0.00450    0.61446    1.000
    Si1440   Si       0.00825    0.96691    0.62419    1.000
    N1441    N        0.10131    0.98045    0.67671    1.000
    N1442    N        0.03818    0.98646    0.70442    1.000
    Si1443   Si       0.01266    0.97051    0.73514    1.000
    Si1444   Si       0.06142    0.96122    0.68135    1.000
    N1445    N        0.04885    0.95706    0.63834    1.000
    Si1446   Si       0.13949    0.95965    0.68033    1.000
    Si1447   Si       0.19512    0.99735    0.65034    1.000
    N1448    N        0.21494    0.99189    0.73785    1.000
    N1449    N        0.21873    0.96298    0.63592    1.000
    N1450    N        0.17052    0.99053    0.68669    1.000
    N1451    N        0.08354    0.97898    0.81195    1.000
    Si1452   Si       0.04083    0.98627    0.80976    1.000
    N1453    N        0.02488    0.97889    0.84958    1.000
    N1454    N        0.02476    0.96137    0.77568    1.000
    Si1455   Si       0.09760    0.00039    0.84732    1.000
    Si1456   Si       0.11572    0.97849    0.77894    1.000
    N1457    N        0.09697    0.00601    0.75153    1.000
    N1458    N        0.15939    0.98604    0.78442    1.000
    Si1459   Si       0.20095    0.97263    0.77544    1.000
    N1460    N        0.18261    0.97283    0.85496    1.000
    Si1461   Si       0.17289    0.00370    0.82385    1.000
    N1462    N        0.21729    0.00602    0.80565    1.000
    N1463    N        0.10260    0.97323    0.87938    1.000
    Si1464   Si       0.08556    0.98136    0.91973    1.000
    Si1465   Si       0.01590    0.00569    0.98848    1.000
    N1466    N        0.11635    0.00468    0.94246    1.000
    N1467    N        0.99284    0.98489    0.95649    1.000
    N1468    N        0.10113    0.96398    0.00030    1.000
    N1469    N        0.16509    0.98003    0.98743    1.000
    Si1470   Si       0.12661    0.99662    0.98505    1.000
    Si1471   Si       0.19970    0.98608    0.96107    1.000
    N1472    N        0.19432    0.99879    0.92115    1.000
    Si1473   Si       0.21101    0.97735    0.88615    1.000
    Si1474   Si       0.33488    0.05149    0.05182    1.000
    N1475    N        0.31053    0.01540    0.05995    1.000
    N1476    N        0.24941    0.05117    0.02452    1.000
    N1477    N        0.34607    0.06057    0.00879    1.000
    N1478    N        0.25324    0.00612    0.10610    1.000
    N1479    N        0.37301    0.00644    0.12036    1.000
    N1480    N        0.36846    0.06136    0.07719    1.000
    N1481    N        0.42962    0.04155    0.05899    1.000
    Si1482   Si       0.40087    0.02944    0.09372    1.000
    N1483    N        0.24682    0.05121    0.15735    1.000
    Si1484   Si       0.34756    0.02270    0.15204    1.000
    N1485    N        0.31022    0.03140    0.13312    1.000
    Si1486   Si       0.28984    0.05103    0.23539    1.000
    N1487    N        0.24793    0.05331    0.22855    1.000
    Si1488   Si       0.29001    0.05941    0.15867    1.000
    N1489    N        0.30861    0.06378    0.19912    1.000
    N1490    N        0.29529    0.00991    0.25101    1.000
    Si1491   Si       0.41055    0.04324    0.16764    1.000
    N1492    N        0.42703    0.04514    0.12683    1.000
    N1493    N        0.36935    0.05814    0.16509    1.000
    Si1494   Si       0.31893    0.05017    0.30855    1.000
    Si1495   Si       0.27996    0.03908    0.35447    1.000
    N1496    N        0.29746    0.01385    0.31839    1.000
    N1497    N        0.24264    0.06073    0.34634    1.000
    N1498    N        0.35959    0.05487    0.32028    1.000
    Si1499   Si       0.37797    0.01647    0.33239    1.000
    N1500    N        0.45327    0.03811    0.31329    1.000
    Si1501   Si       0.47779    0.03398    0.34886    1.000
    N1502    N        0.40244    0.02265    0.36654    1.000
    Si1503   Si       0.26649    0.03721    0.42341    1.000
    N1504    N        0.28270    0.01412    0.38962    1.000
    N1505    N        0.32301    0.03576    0.49501    1.000
    Si1506   Si       0.36368    0.02506    0.49704    1.000
    Si1507   Si       0.29469    0.00493    0.48777    1.000
    Si1508   Si       0.41289    0.02198    0.45990    1.000
    N1509    N        0.48732    0.03740    0.43638    1.000
    N1510    N        0.44424    0.02148    0.48867    1.000
    Si1511   Si       0.45983    0.06607    0.41946    1.000
    N1512    N        0.39024    0.05684    0.48668    1.000
    Si1513   Si       0.39920    0.05953    0.38748    1.000
    N1514    N        0.42176    0.04109    0.42141    1.000
    Si1515   Si       0.30745    0.05423    0.60175    1.000
    N1516    N        0.33557    0.02071    0.58906    1.000
    N1517    N        0.27675    0.05800    0.56991    1.000
    Si1518   Si       0.25792    0.01868    0.56253    1.000
    Si1519   Si       0.37736    0.01160    0.57798    1.000
    N1520    N        0.38465    0.01834    0.53514    1.000
    N1521    N        0.39697    0.04517    0.60123    1.000
    Si1522   Si       0.42282    0.03697    0.52368    1.000
    Si1523   Si       0.47607    0.04967    0.56927    1.000
    N1524    N        0.44698    0.02105    0.55672    1.000
    Si1525   Si       0.24866    0.05439    0.65167    1.000
    Si1526   Si       0.31867    0.05622    0.67310    1.000
    N1527    N        0.30636    0.04782    0.71353    1.000
    N1528    N        0.28903    0.04633    0.64060    1.000
    N1529    N        0.36038    0.04952    0.67357    1.000
    Si1530   Si       0.31918    0.02010    0.74457    1.000
    Si1531   Si       0.38103    0.01977    0.69894    1.000
    Si1532   Si       0.41724    0.03054    0.63708    1.000
    N1533    N        0.42110    0.06716    0.65865    1.000
    N1534    N        0.41404    0.03102    0.72679    1.000
    N1535    N        0.26635    0.03849    0.81997    1.000
    N1536    N        0.33321    0.04520    0.77658    1.000
    N1537    N        0.34202    0.06078    0.85098    1.000
    Si1538   Si       0.35923    0.04680    0.81200    1.000
    N1539    N        0.39259    0.02239    0.82325    1.000
    Si1540   Si       0.40616    0.02934    0.86531    1.000
    N1541    N        0.43074    0.06621    0.86826    1.000
    N1542    N        0.49118    0.02965    0.84272    1.000
    Si1543   Si       0.33205    0.03947    0.88783    1.000
    Si1544   Si       0.25876    0.03005    0.90299    1.000
    Si1545   Si       0.26220    0.03979    0.98418    1.000
    Si1546   Si       0.35943    0.05029    0.96943    1.000
    N1547    N        0.27965    0.02849    0.94040    1.000
    N1548    N        0.29118    0.06216    0.88949    1.000
    N1549    N        0.34734    0.01011    0.95480    1.000
    N1550    N        0.29271    0.00897    0.99599    1.000
    Si1551   Si       0.42621    0.01515    0.97734    1.000
    Si1552   Si       0.46563    0.03909    0.87738    1.000
    N1553    N        0.37410    0.02686    0.89635    1.000
    N1554    N        0.40100    0.05080    0.97102    1.000
    N1555    N        0.46217    0.04134    0.97369    1.000
    N1556    N        0.48612    0.05737    0.91076    1.000
    N1557    N        0.30690    0.08594    0.05143    1.000
    Si1558   Si       0.26394    0.08260    0.05086    1.000
    Si1559   Si       0.33311    0.10176    0.02070    1.000
    N1560    N        0.24880    0.07790    0.09276    1.000
    Si1561   Si       0.25631    0.11354    0.11634    1.000
    N1562    N        0.36368    0.12234    0.11158    1.000
    N1563    N        0.48788    0.07706    0.05550    1.000
    N1564    N        0.37002    0.12002    0.03929    1.000
    N1565    N        0.43217    0.09732    0.01340    1.000
    Si1566   Si       0.38062    0.10297    0.07732    1.000
    N1567    N        0.42372    0.10365    0.08252    1.000
    Si1568   Si       0.44499    0.08131    0.05267    1.000
    N1569    N        0.28931    0.10204    0.14381    1.000
    Si1570   Si       0.34909    0.08058    0.19584    1.000
    N1571    N        0.26937    0.12705    0.24811    1.000
    N1572    N        0.34709    0.12395    0.18480    1.000
    N1573    N        0.43802    0.07590    0.17998    1.000
    Si1574   Si       0.45774    0.07482    0.13911    1.000
    N1575    N        0.37015    0.07454    0.23289    1.000
    Si1576   Si       0.46210    0.09303    0.21447    1.000
    N1577    N        0.47268    0.11487    0.13076    1.000
    Si1578   Si       0.29978    0.11490    0.27448    1.000
    Si1579   Si       0.26496    0.09934    0.33904    1.000
    Si1580   Si       0.33582    0.09704    0.36300    1.000
    N1581    N        0.30236    0.07583    0.34417    1.000
    N1582    N        0.35966    0.12370    0.33724    1.000
    N1583    N        0.30401    0.07098    0.27247    1.000
    N1584    N        0.28116    0.12979    0.31077    1.000
    Si1585   Si       0.38574    0.09093    0.32527    1.000
    N1586    N        0.40881    0.09590    0.29000    1.000
    N1587    N        0.46811    0.10486    0.32283    1.000
    N1588    N        0.41399    0.08883    0.35793    1.000
    Si1589   Si       0.38037    0.10693    0.25808    1.000
    Si1590   Si       0.44759    0.07900    0.29539    1.000
    Si1591   Si       0.44028    0.12476    0.35089    1.000
    N1592    N        0.46223    0.07378    0.25462    1.000
    N1593    N        0.25812    0.12477    0.37388    1.000
    Si1594   Si       0.32867    0.09234    0.42304    1.000
    N1595    N        0.33408    0.10195    0.46397    1.000
    N1596    N        0.35993    0.07485    0.39421    1.000
    N1597    N        0.25885    0.12690    0.44059    1.000
    N1598    N        0.29316    0.07027    0.41858    1.000
    N1599    N        0.47766    0.06867    0.37809    1.000
    N1600    N        0.44806    0.10290    0.44116    1.000
    Si1601   Si       0.47997    0.11728    0.46415    1.000
    N1602    N        0.34762    0.09198    0.53214    1.000
    Si1603   Si       0.34785    0.11350    0.57100    1.000
    N1604    N        0.32321    0.09632    0.60415    1.000
    Si1605   Si       0.26394    0.09722    0.55315    1.000
    N1606    N        0.27915    0.09793    0.51116    1.000
    Si1607   Si       0.31827    0.08084    0.49862    1.000
    N1608    N        0.41953    0.08008    0.53806    1.000
    Si1609   Si       0.45801    0.10602    0.53822    1.000
    N1610    N        0.39020    0.11454    0.58639    1.000
    N1611    N        0.45568    0.08161    0.59161    1.000
    Si1612   Si       0.41301    0.07951    0.58178    1.000
    Si1613   Si       0.38599    0.09185    0.51285    1.000
    Si1614   Si       0.47980    0.12357    0.60201    1.000
    N1615    N        0.25424    0.08236    0.68412    1.000
    Si1616   Si       0.30819    0.11998    0.63741    1.000
    N1617    N        0.31680    0.10092    0.67629    1.000
    Si1618   Si       0.29294    0.09503    0.71368    1.000
    Si1619   Si       0.24685    0.12488    0.67737    1.000
    N1620    N        0.38209    0.12030    0.65322    1.000
    Si1621   Si       0.36849    0.12642    0.73469    1.000
    Si1622   Si       0.42883    0.07398    0.72933    1.000
    Si1623   Si       0.45689    0.09296    0.66213    1.000
    N1624    N        0.39180    0.09479    0.71780    1.000
    N1625    N        0.45836    0.09560    0.70596    1.000
    Si1626   Si       0.38539    0.08416    0.67596    1.000
    Si1627   Si       0.48586    0.12659    0.71839    1.000
    N1628    N        0.30315    0.09719    0.81735    1.000
    Si1629   Si       0.34368    0.10275    0.83522    1.000
    Si1630   Si       0.31005    0.08362    0.77615    1.000
    N1631    N        0.27354    0.08481    0.75509    1.000
    Si1632   Si       0.28155    0.07056    0.84687    1.000
    N1633    N        0.32868    0.10948    0.74537    1.000
    N1634    N        0.48569    0.09567    0.81939    1.000
    N1635    N        0.37388    0.08968    0.80695    1.000
    Si1636   Si       0.40864    0.11326    0.79541    1.000
    N1637    N        0.43608    0.08499    0.77247    1.000
    Si1638   Si       0.47854    0.09202    0.77744    1.000
    Si1639   Si       0.43011    0.10963    0.86867    1.000
    N1640    N        0.33692    0.07768    0.94148    1.000
    N1641    N        0.26526    0.08195    0.96772    1.000
    Si1642   Si       0.34864    0.11866    0.95303    1.000
    N1643    N        0.25152    0.12093    0.91508    1.000
    Si1644   Si       0.29297    0.07129    0.93319    1.000
    Si1645   Si       0.24294    0.11794    0.95659    1.000
    Si1646   Si       0.43675    0.07582    0.97576    1.000
    Si1647   Si       0.48137    0.10050    0.92121    1.000
    N1648    N        0.44594    0.10309    0.94403    1.000
    N1649    N        0.47199    0.11605    0.88103    1.000
    N1650    N        0.26665    0.15125    0.09430    1.000
    N1651    N        0.29226    0.16986    0.03493    1.000
    Si1652   Si       0.25460    0.15857    0.05233    1.000
    Si1653   Si       0.29249    0.18119    0.11455    1.000
    Si1654   Si       0.43531    0.18111    0.05510    1.000
    N1655    N        0.46931    0.15305    0.06333    1.000
    N1656    N        0.41731    0.17137    0.01493    1.000
    N1657    N        0.42110    0.17338    0.09814    1.000
    Si1658   Si       0.44813    0.13630    0.09885    1.000
    Si1659   Si       0.40177    0.13026    0.01057    1.000
    N1660    N        0.31900    0.16433    0.14362    1.000
    N1661    N        0.26334    0.14943    0.18126    1.000
    Si1662   Si       0.30323    0.13256    0.17057    1.000
    Si1663   Si       0.35748    0.14494    0.14478    1.000
    N1664    N        0.38795    0.16824    0.16313    1.000
    N1665    N        0.40252    0.13836    0.23352    1.000
    Si1666   Si       0.37689    0.15463    0.20344    1.000
    Si1667   Si       0.43782    0.16241    0.23965    1.000
    N1668    N        0.46633    0.13649    0.21757    1.000
    Si1669   Si       0.34476    0.17300    0.26691    1.000
    Si1670   Si       0.28452    0.17517    0.31300    1.000
    N1671    N        0.29513    0.17949    0.35558    1.000
    N1672    N        0.34029    0.13047    0.26590    1.000
    N1673    N        0.24542    0.19039    0.30136    1.000
    Si1674   Si       0.37912    0.16123    0.33429    1.000
    N1675    N        0.42497    0.16251    0.33051    1.000
    N1676    N        0.45885    0.18358    0.27353    1.000
    N1677    N        0.32124    0.12616    0.39425    1.000
    Si1678   Si       0.24357    0.16840    0.44675    1.000
    Si1679   Si       0.35039    0.15764    0.39872    1.000
    Si1680   Si       0.28566    0.15343    0.39112    1.000
    N1681    N        0.26139    0.16747    0.48733    1.000
    N1682    N        0.33849    0.16994    0.48482    1.000
    Si1683   Si       0.35865    0.13699    0.46735    1.000
    Si1684   Si       0.25514    0.12484    0.48682    1.000
    N1685    N        0.39286    0.12834    0.49387    1.000
    Si1686   Si       0.42050    0.13614    0.42891    1.000
    N1687    N        0.37625    0.14100    0.42856    1.000
    N1688    N        0.43260    0.17281    0.45496    1.000
    N1689    N        0.43966    0.14266    0.39055    1.000
    Si1690   Si       0.42504    0.15533    0.49507    1.000
    Si1691   Si       0.47902    0.15650    0.40075    1.000
    N1692    N        0.33788    0.15406    0.55939    1.000
    Si1693   Si       0.29843    0.16944    0.57126    1.000
    N1694    N        0.27020    0.13681    0.57062    1.000
    Si1695   Si       0.34002    0.18229    0.52641    1.000
    Si1696   Si       0.24250    0.14913    0.60537    1.000
    N1697    N        0.45977    0.13996    0.56628    1.000
    Si1698   Si       0.45145    0.18229    0.55906    1.000
    N1699    N        0.46167    0.12958    0.50226    1.000
    N1700    N        0.42180    0.18339    0.52561    1.000
    N1701    N        0.32560    0.15972    0.64056    1.000
    N1702    N        0.27491    0.13892    0.70902    1.000
    Si1703   Si       0.27888    0.18199    0.71201    1.000
    N1704    N        0.36468    0.15728    0.70492    1.000
    Si1705   Si       0.36432    0.16088    0.65966    1.000
    N1706    N        0.26559    0.13045    0.63878    1.000
    Si1707   Si       0.40675    0.13442    0.62113    1.000
    N1708    N        0.47340    0.16286    0.69689    1.000
    Si1709   Si       0.46819    0.16600    0.65445    1.000
    N1710    N        0.44921    0.12919    0.63560    1.000
    N1711    N        0.39226    0.17383    0.62793    1.000
    N1712    N        0.26069    0.16119    0.85540    1.000
    N1713    N        0.34131    0.13977    0.85723    1.000
    Si1714   Si       0.24582    0.18063    0.78132    1.000
    Si1715   Si       0.34451    0.18332    0.84094    1.000
    N1716    N        0.24282    0.13862    0.79150    1.000
    N1717    N        0.39567    0.14243    0.76472    1.000
    Si1718   Si       0.41883    0.17865    0.84360    1.000
    N1719    N        0.41900    0.13375    0.83384    1.000
    N1720    N        0.38212    0.18639    0.86589    1.000
    N1721    N        0.47990    0.18018    0.80806    1.000
    Si1722   Si       0.38566    0.18460    0.77649    1.000
    N1723    N        0.25131    0.15998    0.97665    1.000
    N1724    N        0.34388    0.15211    0.92361    1.000
    Si1725   Si       0.25569    0.15950    0.89799    1.000
    Si1726   Si       0.29293    0.15782    0.99430    1.000
    N1727    N        0.32240    0.12610    0.98934    1.000
    Si1728   Si       0.41822    0.13718    0.93834    1.000
    N1729    N        0.43106    0.18022    0.94022    1.000
    Si1730   Si       0.36895    0.15101    0.88860    1.000
    N1731    N        0.40346    0.12907    0.89805    1.000
    N1732    N        0.38796    0.12641    0.96841    1.000
    N1733    N        0.33932    0.21917    0.02682    1.000
    N1734    N        0.31791    0.21012    0.09259    1.000
    Si1735   Si       0.30437    0.20678    0.05189    1.000
    N1736    N        0.27610    0.23863    0.05182    1.000
    N1737    N        0.37964    0.24728    0.07371    1.000
    N1738    N        0.44091    0.22291    0.05690    1.000
    Si1739   Si       0.41912    0.24376    0.08964    1.000
    N1740    N        0.26760    0.20694    0.14021    1.000
    N1741    N        0.27457    0.21620    0.21265    1.000
    Si1742   Si       0.25748    0.19295    0.18060    1.000
    N1743    N        0.35794    0.18605    0.22849    1.000
    Si1744   Si       0.45865    0.21155    0.19308    1.000
    N1745    N        0.45665    0.18855    0.15556    1.000
    N1746    N        0.42455    0.19701    0.21655    1.000
    Si1747   Si       0.41589    0.19079    0.13795    1.000
    N1748    N        0.41408    0.23549    0.13316    1.000
    Si1749   Si       0.38594    0.21895    0.22224    1.000
    Si1750   Si       0.29482    0.22106    0.25101    1.000
    N1751    N        0.30859    0.19137    0.27822    1.000
    N1752    N        0.26742    0.24697    0.27463    1.000
    Si1753   Si       0.36471    0.23073    0.36807    1.000
    N1754    N        0.37344    0.18587    0.29868    1.000
    Si1755   Si       0.48704    0.20971    0.25311    1.000
    N1756    N        0.43170    0.23861    0.31624    1.000
    Si1757   Si       0.39065    0.22512    0.29870    1.000
    Si1758   Si       0.45025    0.19502    0.31459    1.000
    N1759    N        0.37101    0.18736    0.36989    1.000
    N1760    N        0.26351    0.23651    0.37242    1.000
    N1761    N        0.36293    0.23154    0.44954    1.000
    Si1762   Si       0.33101    0.20258    0.45421    1.000
    Si1763   Si       0.29545    0.21015    0.38785    1.000
    N1764    N        0.30305    0.23175    0.47217    1.000
    N1765    N        0.31942    0.18488    0.41697    1.000
    N1766    N        0.32525    0.24335    0.38099    1.000
    N1767    N        0.25759    0.18440    0.40912    1.000
    Si1768   Si       0.45486    0.20882    0.44253    1.000
    N1769    N        0.47163    0.19957    0.40351    1.000
    N1770    N        0.29787    0.20207    0.60053    1.000
    N1771    N        0.29766    0.19813    0.53864    1.000
    N1772    N        0.24452    0.23508    0.50444    1.000
    N1773    N        0.24428    0.23959    0.57356    1.000
    Si1774   Si       0.28501    0.23240    0.57251    1.000
    Si1775   Si       0.27674    0.20400    0.50211    1.000
    N1776    N        0.36388    0.21612    0.53343    1.000
    Si1777   Si       0.40771    0.22281    0.54207    1.000
    N1778    N        0.42699    0.21036    0.58037    1.000
    N1779    N        0.48584    0.20199    0.54117    1.000
    Si1780   Si       0.41446    0.21047    0.62239    1.000
    Si1781   Si       0.48087    0.24299    0.53262    1.000
    Si1782   Si       0.35107    0.19605    0.71417    1.000
    N1783    N        0.28049    0.19910    0.67085    1.000
    N1784    N        0.35393    0.20749    0.67114    1.000
    Si1785   Si       0.31474    0.20377    0.64292    1.000
    N1786    N        0.31386    0.19489    0.73526    1.000
    Si1787   Si       0.24339    0.21328    0.65451    1.000
    N1788    N        0.24432    0.19108    0.73937    1.000
    Si1789   Si       0.45770    0.24204    0.66928    1.000
    N1790    N        0.44739    0.20371    0.64999    1.000
    Si1791   Si       0.41483    0.23828    0.73644    1.000
    Si1792   Si       0.47951    0.19976    0.72185    1.000
    N1793    N        0.38228    0.21030    0.73968    1.000
    N1794    N        0.45048    0.21632    0.74896    1.000
    Si1795   Si       0.31731    0.20986    0.77747    1.000
    N1796    N        0.31507    0.21125    0.85688    1.000
    Si1797   Si       0.27483    0.20050    0.84379    1.000
    N1798    N        0.28080    0.19772    0.80056    1.000
    N1799    N        0.24241    0.22504    0.86053    1.000
    N1800    N        0.34855    0.18442    0.79707    1.000
    Si1801   Si       0.45598    0.21271    0.79285    1.000
    N1802    N        0.41663    0.19884    0.80350    1.000
    N1803    N        0.45065    0.19334    0.86964    1.000
    N1804    N        0.27949    0.18923    0.91578    1.000
    Si1805   Si       0.26583    0.19693    0.95768    1.000
    N1806    N        0.31010    0.19085    0.96876    1.000
    Si1807   Si       0.33990    0.22058    0.98305    1.000
    N1808    N        0.25261    0.23720    0.96864    1.000
    N1809    N        0.34408    0.22404    0.91507    1.000
    Si1810   Si       0.32005    0.18743    0.92513    1.000
    N1811    N        0.41765    0.24250    0.91784    1.000
    N1812    N        0.38006    0.21771    0.96925    1.000
    N1813    N        0.45277    0.22960    0.98641    1.000
    Si1814   Si       0.44444    0.20754    0.91008    1.000
    Si1815   Si       0.42054    0.20143    0.97926    1.000
    N1816    N        0.48212    0.22773    0.92147    1.000
    Si1817   Si       0.49278    0.23304    0.96454    1.000
    N1818    N        0.32880    0.28058    0.05820    1.000
    Si1819   Si       0.28756    0.27893    0.06831    1.000
    N1820    N        0.28841    0.26907    0.11147    1.000
    Si1821   Si       0.36032    0.25558    0.03653    1.000
    Si1822   Si       0.33701    0.25099    0.09218    1.000
    N1823    N        0.44441    0.28756    0.02820    1.000
    N1824    N        0.44450    0.27892    0.09698    1.000
    N1825    N        0.37650    0.28063    0.00505    1.000
    Si1826   Si       0.46171    0.24525    0.02704    1.000
    N1827    N        0.24915    0.28671    0.21864    1.000
    Si1828   Si       0.31315    0.28697    0.14141    1.000
    N1829    N        0.35112    0.26886    0.12873    1.000
    Si1830   Si       0.27188    0.25693    0.19805    1.000
    N1831    N        0.30931    0.27239    0.18270    1.000
    Si1832   Si       0.34179    0.26763    0.20911    1.000
    N1833    N        0.36720    0.30121    0.21980    1.000
    Si1834   Si       0.25419    0.24599    0.12514    1.000
    Si1835   Si       0.44643    0.27002    0.14335    1.000
    N1836    N        0.37332    0.24488    0.19217    1.000
    N1837    N        0.41332    0.29721    0.15384    1.000
    N1838    N        0.48565    0.29183    0.14513    1.000
    Si1839   Si       0.47586    0.27796    0.21753    1.000
    Si1840   Si       0.38556    0.26144    0.15339    1.000
    N1841    N        0.46012    0.25398    0.18618    1.000
    Si1842   Si       0.30222    0.27929    0.27885    1.000
    N1843    N        0.30549    0.27169    0.32157    1.000
    Si1844   Si       0.34589    0.28454    0.32672    1.000
    Si1845   Si       0.29283    0.26654    0.36239    1.000
    N1846    N        0.34863    0.30042    0.28555    1.000
    N1847    N        0.32124    0.25527    0.24466    1.000
    Si1848   Si       0.38024    0.28688    0.25987    1.000
    Si1849   Si       0.45044    0.26693    0.28797    1.000
    N1850    N        0.42093    0.29621    0.27521    1.000
    N1851    N        0.48221    0.29068    0.30783    1.000
    Si1852   Si       0.42652    0.26148    0.35453    1.000
    N1853    N        0.47229    0.25157    0.25294    1.000
    N1854    N        0.37132    0.25035    0.32936    1.000
    N1855    N        0.46727    0.26502    0.37172    1.000
    N1856    N        0.38956    0.24108    0.25771    1.000
    N1857    N        0.31493    0.29259    0.44145    1.000
    Si1858   Si       0.33719    0.26266    0.46507    1.000
    N1859    N        0.25197    0.26743    0.44054    1.000
    Si1860   Si       0.26842    0.26028    0.47888    1.000
    Si1861   Si       0.27433    0.30073    0.42154    1.000
    N1862    N        0.40064    0.24772    0.38735    1.000
    N1863    N        0.37758    0.29548    0.43375    1.000
    Si1864   Si       0.44805    0.27154    0.48475    1.000
    Si1865   Si       0.39596    0.25208    0.43122    1.000
    N1866    N        0.43210    0.24540    0.45271    1.000
    N1867    N        0.31589    0.26298    0.56730    1.000
    Si1868   Si       0.35132    0.25624    0.54258    1.000
    N1869    N        0.34308    0.27625    0.50600    1.000
    N1870    N        0.27969    0.29650    0.50398    1.000
    Si1871   Si       0.43353    0.28219    0.55746    1.000
    N1872    N        0.39084    0.26682    0.56211    1.000
    N1873    N        0.47561    0.26572    0.56810    1.000
    Si1874   Si       0.38689    0.28107    0.60205    1.000
    N1875    N        0.43707    0.25149    0.52236    1.000
    N1876    N        0.42398    0.30334    0.60003    1.000
    Si1877   Si       0.28405    0.27902    0.64500    1.000
    N1878    N        0.24716    0.25604    0.64985    1.000
    Si1879   Si       0.36004    0.24868    0.65738    1.000
    N1880    N        0.31846    0.25006    0.64239    1.000
    N1881    N        0.36602    0.28017    0.68473    1.000
    N1882    N        0.42672    0.25494    0.69615    1.000
    Si1883   Si       0.40476    0.29317    0.70628    1.000
    N1884    N        0.46873    0.26955    0.63671    1.000
    N1885    N        0.39064    0.24674    0.62899    1.000
    N1886    N        0.33249    0.27887    0.86361    1.000
    Si1887   Si       0.35342    0.28161    0.76722    1.000
    N1888    N        0.33445    0.24781    0.78190    1.000
    N1889    N        0.26176    0.30057    0.85219    1.000
    Si1890   Si       0.37121    0.29132    0.84445    1.000
    N1891    N        0.46624    0.25330    0.80626    1.000
    N1892    N        0.40324    0.26382    0.84282    1.000
    Si1893   Si       0.44327    0.27754    0.83538    1.000
    N1894    N        0.39600    0.27850    0.75136    1.000
    N1895    N        0.28422    0.26269    0.91096    1.000
    N1896    N        0.32019    0.25945    0.97436    1.000
    Si1897   Si       0.28174    0.26627    0.95541    1.000
    Si1898   Si       0.34608    0.29541    0.97607    1.000
    Si1899   Si       0.26500    0.30018    0.89690    1.000
    Si1900   Si       0.31840    0.24386    0.88579    1.000
    N1901    N        0.47400    0.29114    0.94433    1.000
    N1902    N        0.46297    0.27369    0.87457    1.000
    N1903    N        0.36830    0.28776    0.93936    1.000
    Si1904   Si       0.44365    0.27972    0.91403    1.000
    Si1905   Si       0.37804    0.24330    0.93409    1.000
    Si1906   Si       0.34142    0.32232    0.04280    1.000
    N1907    N        0.31884    0.34769    0.07142    1.000
    Si1908   Si       0.33709    0.35408    0.11153    1.000
    N1909    N        0.25618    0.30513    0.05664    1.000
    N1910    N        0.32467    0.32292    0.00043    1.000
    Si1911   Si       0.40100    0.35765    0.07127    1.000
    N1912    N        0.38333    0.33181    0.04344    1.000
    N1913    N        0.44286    0.34797    0.06678    1.000
    N1914    N        0.38248    0.34764    0.10864    1.000
    Si1915   Si       0.40691    0.30941    0.01465    1.000
    Si1916   Si       0.45781    0.30642    0.06462    1.000
    N1917    N        0.31625    0.32996    0.14404    1.000
    Si1918   Si       0.37369    0.34272    0.21127    1.000
    Si1919   Si       0.40864    0.34005    0.14389    1.000
    N1920    N        0.39628    0.36192    0.17862    1.000
    Si1921   Si       0.48464    0.33590    0.13865    1.000
    N1922    N        0.46108    0.31812    0.22668    1.000
    Si1923   Si       0.48182    0.35339    0.21299    1.000
    N1924    N        0.44895    0.36023    0.13721    1.000
    N1925    N        0.40041    0.35718    0.24290    1.000
    N1926    N        0.27438    0.31344    0.27699    1.000
    N1927    N        0.34691    0.31735    0.35584    1.000
    Si1928   Si       0.27573    0.35806    0.29015    1.000
    Si1929   Si       0.30688    0.33993    0.36078    1.000
    N1930    N        0.30642    0.36010    0.32084    1.000
    Si1931   Si       0.45623    0.32157    0.32545    1.000
    Si1932   Si       0.38659    0.33233    0.35257    1.000
    Si1933   Si       0.43471    0.33559    0.25849    1.000
    N1934    N        0.45170    0.35416    0.29606    1.000
    N1935    N        0.47564    0.33929    0.36008    1.000
    N1936    N        0.41960    0.30464    0.34299    1.000
    N1937    N        0.32936    0.35493    0.41503    1.000
    Si1938   Si       0.34616    0.32440    0.44350    1.000
    N1939    N        0.33716    0.33963    0.48441    1.000
    N1940    N        0.25952    0.33949    0.43618    1.000
    N1941    N        0.28341    0.30575    0.37820    1.000
    Si1942   Si       0.47839    0.30385    0.38908    1.000
    N1943    N        0.44588    0.32014    0.41327    1.000
    N1944    N        0.42733    0.30934    0.47738    1.000
    N1945    N        0.39831    0.35479    0.38573    1.000
    N1946    N        0.38641    0.35730    0.44675    1.000
    Si1947   Si       0.41188    0.32279    0.43739    1.000
    Si1948   Si       0.44232    0.36129    0.38869    1.000
    N1949    N        0.32110    0.33226    0.55321    1.000
    Si1950   Si       0.31950    0.31268    0.51377    1.000
    N1951    N        0.35551    0.31156    0.60859    1.000
    Si1952   Si       0.25122    0.32795    0.50849    1.000
    N1953    N        0.28029    0.30758    0.61190    1.000
    Si1954   Si       0.24256    0.32656    0.59855    1.000
    N1955    N        0.24808    0.33101    0.55543    1.000
    Si1956   Si       0.31768    0.30361    0.58904    1.000
    Si1957   Si       0.37045    0.35378    0.61274    1.000
    N1958    N        0.44140    0.31966    0.54243    1.000
    Si1959   Si       0.43957    0.34418    0.58061    1.000
    Si1960   Si       0.43531    0.34060    0.50600    1.000
    N1961    N        0.46678    0.34607    0.61726    1.000
    N1962    N        0.39877    0.36077    0.58059    1.000
    Si1963   Si       0.33816    0.31035    0.69680    1.000
    N1964    N        0.27622    0.35295    0.72621    1.000
    Si1965   Si       0.28633    0.34592    0.68221    1.000
    N1966    N        0.33018    0.35383    0.68740    1.000
    N1967    N        0.32917    0.30354    0.73929    1.000
    N1968    N        0.29788    0.30230    0.67839    1.000
    N1969    N        0.42873    0.31624    0.67184    1.000
    Si1970   Si       0.45081    0.30795    0.63332    1.000
    N1971    N        0.38635    0.33418    0.71425    1.000
    Si1972   Si       0.41482    0.35423    0.68549    1.000
    N1973    N        0.44367    0.31826    0.74945    1.000
    Si1974   Si       0.27647    0.33322    0.82685    1.000
    N1975    N        0.31917    0.34420    0.83307    1.000
    N1976    N        0.27641    0.31826    0.78488    1.000
    Si1977   Si       0.30384    0.33473    0.75490    1.000
    Si1978   Si       0.35860    0.35119    0.80325    1.000
    Si1979   Si       0.32793    0.32220    0.87086    1.000
    N1980    N        0.33389    0.36203    0.76845    1.000
    Si1981   Si       0.48603    0.32763    0.75896    1.000
    Si1982   Si       0.47067    0.34222    0.82085    1.000
    N1983    N        0.43550    0.31641    0.81614    1.000
    Si1984   Si       0.40968    0.31501    0.77825    1.000
    N1985    N        0.39856    0.35976    0.77318    1.000
    N1986    N        0.36947    0.30762    0.80167    1.000
    N1987    N        0.48729    0.36316    0.85461    1.000
    Si1988   Si       0.28867    0.34102    0.98111    1.000
    N1989    N        0.29591    0.33046    0.89819    1.000
    N1990    N        0.26790    0.30588    0.96510    1.000
    N1991    N        0.37128    0.32401    0.87333    1.000
    N1992    N        0.47441    0.36283    0.95053    1.000
    N1993    N        0.41822    0.33834    0.98410    1.000
    N1994    N        0.42538    0.31727    0.91603    1.000
    Si1995   Si       0.38233    0.32263    0.91686    1.000
    Si1996   Si       0.44861    0.32872    0.95148    1.000
    N1997    N        0.36907    0.35701    0.93903    1.000
    N1998    N        0.26555    0.40161    0.08009    1.000
    Si1999   Si       0.28867    0.37548    0.05406    1.000
    N2000    N        0.31795    0.40926    0.04988    1.000
    N2001    N        0.27358    0.36747    0.01352    1.000
    Si2002   Si       0.45263    0.39003    0.05815    1.000
    N2003    N        0.40632    0.39911    0.05966    1.000
    N2004    N        0.45522    0.40659    0.01432    1.000
    N2005    N        0.45829    0.41665    0.09416    1.000
    N2006    N        0.33183    0.38999    0.13636    1.000
    Si2007   Si       0.31933    0.39026    0.23759    1.000
    Si2008   Si       0.24634    0.38182    0.22699    1.000
    N2009    N        0.33352    0.36094    0.20674    1.000
    N2010    N        0.26702    0.36463    0.18547    1.000
    Si2011   Si       0.30990    0.36450    0.17058    1.000
    N2012    N        0.39705    0.42152    0.22552    1.000
    Si2013   Si       0.46233    0.40068    0.13403    1.000
    N2014    N        0.45687    0.38875    0.21208    1.000
    Si2015   Si       0.41731    0.39875    0.19040    1.000
    N2016    N        0.42727    0.42335    0.15528    1.000
    N2017    N        0.34619    0.39266    0.27208    1.000
    Si2018   Si       0.34361    0.38223    0.31418    1.000
    Si2019   Si       0.29265    0.40916    0.34804    1.000
    N2020    N        0.28138    0.37615    0.25153    1.000
    N2021    N        0.33726    0.41579    0.34222    1.000
    N2022    N        0.41193    0.41430    0.29213    1.000
    Si2023   Si       0.38826    0.39563    0.26071    1.000
    Si2024   Si       0.42258    0.38186    0.31935    1.000
    N2025    N        0.44055    0.39368    0.35631    1.000
    N2026    N        0.48464    0.41725    0.27216    1.000
    N2027    N        0.38176    0.36364    0.32192    1.000
    N2028    N        0.28473    0.37671    0.37717    1.000
    N2029    N        0.35302    0.41068    0.47274    1.000
    N2030    N        0.28020    0.40312    0.44191    1.000
    Si2031   Si       0.26853    0.40876    0.48288    1.000
    Si2032   Si       0.28822    0.36724    0.41811    1.000
    N2033    N        0.35821    0.41879    0.40381    1.000
    N2034    N        0.45647    0.38550    0.42378    1.000
    Si2035   Si       0.36696    0.37198    0.48354    1.000
    Si2036   Si       0.36938    0.37549    0.41176    1.000
    Si2037   Si       0.48596    0.38480    0.45798    1.000
    N2038    N        0.46961    0.36312    0.49131    1.000
    N2039    N        0.28196    0.39446    0.56457    1.000
    N2040    N        0.34613    0.39796    0.53725    1.000
    Si2041   Si       0.32091    0.37485    0.56376    1.000
    N2042    N        0.33289    0.37683    0.60661    1.000
    Si2043   Si       0.24858    0.37540    0.54902    1.000
    N2044    N        0.26258    0.37117    0.50642    1.000
    Si2045   Si       0.39015    0.38914    0.54739    1.000
    N2046    N        0.45841    0.37973    0.55591    1.000
    N2047    N        0.39990    0.36652    0.51168    1.000
    N2048    N        0.47823    0.41521    0.60580    1.000
    Si2049   Si       0.30575    0.40141    0.63174    1.000
    Si2050   Si       0.35735    0.38642    0.67794    1.000
    N2051    N        0.27667    0.38181    0.65703    1.000
    Si2052   Si       0.41149    0.41795    0.72272    1.000
    N2053    N        0.37185    0.40006    0.71765    1.000
    Si2054   Si       0.47268    0.40981    0.69149    1.000
    N2055    N        0.38868    0.36886    0.65135    1.000
    Si2056   Si       0.36928    0.36306    0.74163    1.000
    N2057    N        0.43533    0.38979    0.70087    1.000
    Si2058   Si       0.31765    0.38946    0.83783    1.000
    N2059    N        0.25982    0.37255    0.83339    1.000
    N2060    N        0.35994    0.38886    0.82517    1.000
    Si2061   Si       0.25710    0.41242    0.81454    1.000
    N2062    N        0.42960    0.39633    0.82897    1.000
    Si2063   Si       0.43018    0.38837    0.78681    1.000
    Si2064   Si       0.46584    0.40214    0.85358    1.000
    Si2065   Si       0.39212    0.41271    0.83993    1.000
    N2066    N        0.47300    0.37159    0.78593    1.000
    N2067    N        0.36145    0.39253    0.99058    1.000
    Si2068   Si       0.33962    0.38749    0.95395    1.000
    N2069    N        0.31788    0.39392    0.88235    1.000
    Si2070   Si       0.29021    0.37437    0.90941    1.000
    N2071    N        0.25051    0.38884    0.90329    1.000
    N2072    N        0.30143    0.37019    0.95152    1.000
    Si2073   Si       0.47652    0.39895    0.92622    1.000
    N2074    N        0.41439    0.40945    0.95066    1.000
    N2075    N        0.44971    0.40761    0.89575    1.000
    Si2076   Si       0.39565    0.37431    0.96903    1.000
    N2077    N        0.38596    0.42076    0.88338    1.000
    Si2078   Si       0.29148    0.43517    0.07232    1.000
    N2079    N        0.27387    0.46647    0.04894    1.000
    N2080    N        0.30823    0.44865    0.11171    1.000
    Si2081   Si       0.28848    0.47909    0.01127    1.000
    N2082    N        0.36858    0.45216    0.03184    1.000
    Si2083   Si       0.34204    0.41999    0.01773    1.000
    N2084    N        0.37797    0.44422    0.10432    1.000
    Si2085   Si       0.45706    0.45965    0.09309    1.000
    Si2086   Si       0.39467    0.44027    0.06432    1.000
    N2087    N        0.42907    0.46687    0.05968    1.000
    N2088    N        0.25035    0.42874    0.21454    1.000
    Si2089   Si       0.34281    0.43006    0.12961    1.000
    Si2090   Si       0.27489    0.46352    0.13710    1.000
    Si2091   Si       0.28617    0.45368    0.21364    1.000
    N2092    N        0.32150    0.42897    0.21911    1.000
    Si2093   Si       0.36114    0.44372    0.20886    1.000
    N2094    N        0.25423    0.42597    0.14274    1.000
    N2095    N        0.36430    0.44540    0.16544    1.000
    N2096    N        0.28485    0.47808    0.17722    1.000
    N2097    N        0.45641    0.45775    0.22378    1.000
    Si2098   Si       0.40056    0.45982    0.14149    1.000
    Si2099   Si       0.41638    0.45946    0.23858    1.000
    Si2100   Si       0.48144    0.42224    0.23037    1.000
    Si2101   Si       0.27462    0.46040    0.29217    1.000
    Si2102   Si       0.35954    0.44476    0.36774    1.000
    N2103    N        0.28172    0.47862    0.25126    1.000
    N2104    N        0.27626    0.42036    0.30771    1.000
    Si2105   Si       0.41437    0.45320    0.31112    1.000
    N2106    N        0.39916    0.44945    0.35074    1.000
    N2107    N        0.45581    0.45126    0.32493    1.000
    Si2108   Si       0.44100    0.43639    0.36275    1.000
    N2109    N        0.41038    0.48216    0.27899    1.000
    N2110    N        0.27752    0.44095    0.37428    1.000
    Si2111   Si       0.26186    0.43107    0.41427    1.000
    N2112    N        0.26856    0.46860    0.43565    1.000
    Si2113   Si       0.30019    0.47240    0.46511    1.000
    N2114    N        0.34115    0.47557    0.45465    1.000
    Si2115   Si       0.36496    0.43885    0.44440    1.000
    Si2116   Si       0.44756    0.42856    0.43311    1.000
    N2117    N        0.47363    0.42730    0.46777    1.000
    N2118    N        0.46209    0.44862    0.39659    1.000
    N2119    N        0.40773    0.43885    0.44130    1.000
    Si2120   Si       0.27744    0.43655    0.57445    1.000
    N2121    N        0.30885    0.46309    0.55839    1.000
    Si2122   Si       0.33715    0.43202    0.50923    1.000
    Si2123   Si       0.28202    0.47101    0.52421    1.000
    N2124    N        0.24815    0.45206    0.54482    1.000
    N2125    N        0.28157    0.43359    0.61791    1.000
    N2126    N        0.29598    0.44181    0.49496    1.000
    N2127    N        0.36325    0.46557    0.51364    1.000
    N2128    N        0.40954    0.42571    0.55525    1.000
    N2129    N        0.47484    0.44780    0.54096    1.000
    Si2130   Si       0.39430    0.46435    0.54507    1.000
    N2131    N        0.44671    0.46971    0.59809    1.000
    Si2132   Si       0.45216    0.42103    0.56953    1.000
    N2133    N        0.37457    0.47997    0.58032    1.000
    Si2134   Si       0.35139    0.46035    0.65456    1.000
    N2135    N        0.26362    0.46113    0.68533    1.000
    Si2136   Si       0.25792    0.46161    0.64232    1.000
    N2137    N        0.34146    0.47517    0.69526    1.000
    N2138    N        0.29988    0.47542    0.74876    1.000
    N2139    N        0.33759    0.41973    0.65562    1.000
    Si2140   Si       0.43134    0.46895    0.67017    1.000
    N2141    N        0.46351    0.44145    0.66414    1.000
    N2142    N        0.41113    0.45803    0.70558    1.000
    Si2143   Si       0.47976    0.45281    0.62491    1.000
    N2144    N        0.39419    0.47215    0.64495    1.000
    Si2145   Si       0.29682    0.46758    0.83617    1.000
    Si2146   Si       0.26407    0.46458    0.76890    1.000
    N2147    N        0.25833    0.47525    0.81152    1.000
    N2148    N        0.33349    0.46446    0.86592    1.000
    N2149    N        0.29825    0.42542    0.82511    1.000
    N2150    N        0.25567    0.42229    0.77083    1.000
    Si2151   Si       0.35764    0.47922    0.83294    1.000
    Si2152   Si       0.48621    0.47896    0.83894    1.000
    Si2153   Si       0.40495    0.45990    0.78113    1.000
    N2154    N        0.38597    0.45067    0.81996    1.000
    N2155    N        0.42054    0.42312    0.76403    1.000
    N2156    N        0.27381    0.48698    0.87170    1.000
    N2157    N        0.31200    0.44609    0.99380    1.000
    N2158    N        0.34094    0.42686    0.93424    1.000
    Si2159   Si       0.33143    0.46095    0.95753    1.000
    Si2160   Si       0.34287    0.42729    0.89078    1.000
    Si2161   Si       0.41585    0.42960    0.91174    1.000
    N2162    N        0.43108    0.46997    0.98900    1.000
    Si2163   Si       0.44053    0.42794    0.97945    1.000
    N2164    N        0.41800    0.47249    0.92103    1.000
    N2165    N        0.47628    0.43163    0.95520    1.000
    Si2166   Si       0.25607    0.49905    0.06949    1.000
    N2167    N        0.28798    0.52570    0.08393    1.000
    N2168    N        0.32011    0.50992    0.01344    1.000
    Si2169   Si       0.35969    0.49102    0.01309    1.000
    N2170    N        0.24625    0.48928    0.11237    1.000
    N2171    N        0.35904    0.53580    0.09203    1.000
    Si2172   Si       0.26454    0.53088    0.12060    1.000
    Si2173   Si       0.42871    0.49517    0.02487    1.000
    N2174    N        0.39125    0.51651    0.02808    1.000
    N2175    N        0.46254    0.52073    0.01553    1.000
    N2176    N        0.33006    0.52217    0.20790    1.000
    Si2177   Si       0.29237    0.51942    0.18734    1.000
    Si2178   Si       0.47509    0.48783    0.19838    1.000
    N2179    N        0.38266    0.50778    0.15441    1.000
    N2180    N        0.48052    0.53473    0.12878    1.000
    Si2181   Si       0.43757    0.52311    0.14064    1.000
    N2182    N        0.44517    0.51452    0.18270    1.000
    Si2183   Si       0.37062    0.51506    0.19528    1.000
    N2184    N        0.43622    0.48204    0.12349    1.000
    N2185    N        0.37724    0.48141    0.22512    1.000
    N2186    N        0.28063    0.49012    0.32384    1.000
    Si2187   Si       0.31524    0.51651    0.30902    1.000
    Si2188   Si       0.24833    0.51979    0.32801    1.000
    Si2189   Si       0.28920    0.48145    0.36586    1.000
    N2190    N        0.34009    0.48605    0.29199    1.000
    Si2191   Si       0.25190    0.51113    0.24872    1.000
    N2192    N        0.33378    0.48065    0.37278    1.000
    N2193    N        0.34005    0.53795    0.33822    1.000
    Si2194   Si       0.37221    0.50130    0.26450    1.000
    Si2195   Si       0.42578    0.52080    0.29383    1.000
    N2196    N        0.46746    0.51918    0.30691    1.000
    N2197    N        0.40601    0.53090    0.33082    1.000
    Si2198   Si       0.48451    0.51980    0.26761    1.000
    N2199    N        0.44354    0.53745    0.25334    1.000
    Si2200   Si       0.48882    0.52569    0.34593    1.000
    N2201    N        0.38286    0.54017    0.27512    1.000
    Si2202   Si       0.34666    0.52318    0.37999    1.000
    Si2203   Si       0.24855    0.52335    0.49096    1.000
    Si2204   Si       0.24922    0.50465    0.42320    1.000
    N2205    N        0.26634    0.51496    0.38368    1.000
    Si2206   Si       0.36511    0.49705    0.48508    1.000
    N2207    N        0.40143    0.51017    0.46825    1.000
    N2208    N        0.38571    0.52278    0.39993    1.000
    N2209    N        0.45841    0.53268    0.37564    1.000
    N2210    N        0.47422    0.51354    0.49790    1.000
    Si2211   Si       0.33238    0.48691    0.58643    1.000
    N2212    N        0.31585    0.52778    0.58597    1.000
    N2213    N        0.35566    0.53505    0.50718    1.000
    N2214    N        0.28892    0.50570    0.49678    1.000
    Si2215   Si       0.40819    0.48742    0.60630    1.000
    N2216    N        0.41448    0.53123    0.60887    1.000
    N2217    N        0.42315    0.49467    0.53487    1.000
    Si2218   Si       0.45957    0.48633    0.55633    1.000
    Si2219   Si       0.43143    0.51908    0.50087    1.000
    Si2220   Si       0.29856    0.48117    0.70371    1.000
    N2221    N        0.25671    0.50103    0.62347    1.000
    Si2222   Si       0.29704    0.52074    0.63055    1.000
    N2223    N        0.29415    0.51938    0.68100    1.000
    N2224    N        0.32605    0.48509    0.63010    1.000
    Si2225   Si       0.37770    0.48398    0.71603    1.000
    N2226    N        0.45215    0.50700    0.66619    1.000
    Si2227   Si       0.48277    0.51574    0.69511    1.000
    N2228    N        0.38600    0.52602    0.70516    1.000
    N2229    N        0.48097    0.48763    0.73062    1.000
    N2230    N        0.32040    0.49490    0.80988    1.000
    Si2231   Si       0.33400    0.49597    0.76664    1.000
    Si2232   Si       0.30057    0.53597    0.81121    1.000
    N2233    N        0.33602    0.53693    0.75457    1.000
    N2234    N        0.26597    0.54421    0.83853    1.000
    N2235    N        0.43163    0.49499    0.79034    1.000
    N2236    N        0.38084    0.51467    0.84096    1.000
    Si2237   Si       0.42264    0.51121    0.82933    1.000
    Si2238   Si       0.46772    0.50558    0.76772    1.000
    N2239    N        0.44746    0.48828    0.85716    1.000
    N2240    N        0.37092    0.47725    0.75903    1.000
    N2241    N        0.35402    0.51738    0.91026    1.000
    Si2242   Si       0.31522    0.49688    0.89263    1.000
    N2243    N        0.25392    0.49189    0.98713    1.000
    Si2244   Si       0.27349    0.51126    0.95264    1.000
    Si2245   Si       0.25928    0.53300    0.88137    1.000
    N2246    N        0.30329    0.48434    0.93437    1.000
    N2247    N        0.24347    0.51536    0.92072    1.000
    N2248    N        0.42304    0.53555    0.96321    1.000
    N2249    N        0.47900    0.50162    0.92112    1.000
    N2250    N        0.42077    0.53733    0.89282    1.000
    Si2251   Si       0.37875    0.53726    0.87869    1.000
    Si2252   Si       0.40804    0.49239    0.95853    1.000
    Si2253   Si       0.44295    0.50111    0.89947    1.000
    N2254    N        0.36777    0.48191    0.97008    1.000
    N2255    N        0.33750    0.56596    0.04027    1.000
    N2256    N        0.30381    0.58742    0.10244    1.000
    Si2257   Si       0.32073    0.55295    0.07981    1.000
    N2258    N        0.40599    0.58002    0.05907    1.000
    Si2259   Si       0.42749    0.58993    0.09835    1.000
    Si2260   Si       0.37735    0.54838    0.05342    1.000
    N2261    N        0.46727    0.59509    0.08576    1.000
    N2262    N        0.48980    0.58124    0.02263    1.000
    N2263    N        0.35180    0.57214    0.15251    1.000
    Si2264   Si       0.30927    0.58416    0.14610    1.000
    N2265    N        0.33149    0.58848    0.22229    1.000
    N2266    N        0.28513    0.54677    0.15529    1.000
    Si2267   Si       0.31240    0.55091    0.23541    1.000
    Si2268   Si       0.24770    0.57732    0.21340    1.000
    Si2269   Si       0.36489    0.58481    0.19209    1.000
    N2270    N        0.27129    0.54161    0.22056    1.000
    Si2271   Si       0.40904    0.56164    0.24704    1.000
    N2272    N        0.41647    0.55586    0.12459    1.000
    N2273    N        0.45366    0.58496    0.19958    1.000
    Si2274   Si       0.45737    0.54417    0.21147    1.000
    N2275    N        0.39068    0.55433    0.20978    1.000
    Si2276   Si       0.37560    0.54422    0.13098    1.000
    N2277    N        0.27096    0.55697    0.33704    1.000
    Si2278   Si       0.28620    0.58101    0.30221    1.000
    N2279    N        0.30768    0.54878    0.28038    1.000
    Si2280   Si       0.37242    0.55405    0.31529    1.000
    N2281    N        0.37871    0.59635    0.31158    1.000
    Si2282   Si       0.26718    0.58072    0.44835    1.000
    N2283    N        0.30849    0.56910    0.46220    1.000
    N2284    N        0.32223    0.55527    0.39851    1.000
    Si2285   Si       0.33173    0.58609    0.42803    1.000
    Si2286   Si       0.28177    0.55535    0.38037    1.000
    N2287    N        0.26187    0.58655    0.40387    1.000
    N2288    N        0.24818    0.53926    0.45011    1.000
    Si2289   Si       0.41660    0.53853    0.37282    1.000
    N2290    N        0.43511    0.55774    0.43182    1.000
    N2291    N        0.37577    0.58576    0.43716    1.000
    Si2292   Si       0.39622    0.54174    0.43869    1.000
    N2293    N        0.40862    0.58127    0.37668    1.000
    N2294    N        0.48110    0.58407    0.48094    1.000
    Si2295   Si       0.47260    0.54151    0.41618    1.000
    N2296    N        0.30900    0.57631    0.53373    1.000
    Si2297   Si       0.32933    0.56439    0.56998    1.000
    Si2298   Si       0.26567    0.58472    0.54622    1.000
    Si2299   Si       0.31387    0.54605    0.49971    1.000
    N2300    N        0.24317    0.55659    0.51774    1.000
    N2301    N        0.37359    0.56609    0.56558    1.000
    N2302    N        0.42339    0.56195    0.51175    1.000
    Si2303   Si       0.39450    0.56956    0.60441    1.000
    Si2304   Si       0.38214    0.56636    0.52369    1.000
    N2305    N        0.47552    0.56262    0.61504    1.000
    Si2306   Si       0.24813    0.58659    0.62251    1.000
    Si2307   Si       0.32622    0.58977    0.63217    1.000
    Si2308   Si       0.27762    0.55892    0.68393    1.000
    N2309    N        0.28953    0.56582    0.64133    1.000
    N2310    N        0.30352    0.58261    0.70845    1.000
    N2311    N        0.24686    0.55247    0.71637    1.000
    N2312    N        0.36267    0.56642    0.63689    1.000
    N2313    N        0.37577    0.58805    0.70842    1.000
    Si2314   Si       0.44519    0.54032    0.63794    1.000
    Si2315   Si       0.45705    0.59069    0.68285    1.000
    N2316    N        0.42504    0.56942    0.66377    1.000
    Si2317   Si       0.37368    0.55439    0.73833    1.000
    Si2318   Si       0.38353    0.55930    0.67522    1.000
    N2319    N        0.48201    0.55825    0.70233    1.000
    N2320    N        0.32894    0.56667    0.82210    1.000
    Si2321   Si       0.35677    0.58817    0.79685    1.000
    N2322    N        0.27537    0.54907    0.77636    1.000
    Si2323   Si       0.32033    0.57453    0.86434    1.000
    Si2324   Si       0.24304    0.56319    0.80903    1.000
    Si2325   Si       0.30668    0.56764    0.74907    1.000
    N2326    N        0.36214    0.57677    0.87766    1.000
    N2327    N        0.39079    0.56657    0.77633    1.000
    Si2328   Si       0.43376    0.57010    0.78640    1.000
    N2329    N        0.43495    0.55300    0.82763    1.000
    N2330    N        0.46760    0.54808    0.76643    1.000
    Si2331   Si       0.44034    0.56743    0.86844    1.000
    N2332    N        0.35636    0.55584    0.96920    1.000
    Si2333   Si       0.28973    0.59108    0.95594    1.000
    Si2334   Si       0.33150    0.55235    0.92908    1.000
    N2335    N        0.29586    0.54726    0.95808    1.000
    N2336    N        0.32227    0.59550    0.92531    1.000
    N2337    N        0.30659    0.59576    0.99399    1.000
    N2338    N        0.30252    0.54281    0.89018    1.000
    Si2339   Si       0.32290    0.55174    0.99847    1.000
    N2340    N        0.48844    0.56540    0.95963    1.000
    N2341    N        0.48083    0.56528    0.88844    1.000
    N2342    N        0.42761    0.59094    0.99118    1.000
    Si2343   Si       0.39739    0.57068    0.96382    1.000
    Si2344   Si       0.48785    0.59282    0.92401    1.000
    Si2345   Si       0.45896    0.55804    0.99163    1.000
    Si2346   Si       0.28305    0.61810    0.08229    1.000
    N2347    N        0.31110    0.63526    0.05376    1.000
    Si2348   Si       0.33104    0.60746    0.02755    1.000
    N2349    N        0.27047    0.64878    0.11137    1.000
    N2350    N        0.24670    0.60166    0.06248    1.000
    N2351    N        0.36938    0.62282    0.01568    1.000
    N2352    N        0.43477    0.63781    0.04180    1.000
    Si2353   Si       0.47386    0.61464    0.04738    1.000
    N2354    N        0.41211    0.62961    0.10770    1.000
    Si2355   Si       0.40813    0.60782    0.02624    1.000
    Si2356   Si       0.41386    0.65743    0.07587    1.000
    N2357    N        0.29543    0.61911    0.16841    1.000
    Si2358   Si       0.30644    0.62240    0.21182    1.000
    N2359    N        0.26763    0.61362    0.22896    1.000
    Si2360   Si       0.26741    0.65037    0.15395    1.000
    N2361    N        0.45245    0.64886    0.19134    1.000
    Si2362   Si       0.42614    0.61901    0.20892    1.000
    Si2363   Si       0.48350    0.61301    0.18523    1.000
    N2364    N        0.38575    0.62210    0.19164    1.000
    Si2365   Si       0.35166    0.63342    0.31805    1.000
    N2366    N        0.31300    0.61584    0.30527    1.000
    N2367    N        0.24702    0.59966    0.29196    1.000
    Si2368   Si       0.24001    0.63287    0.25948    1.000
    Si2369   Si       0.29251    0.65645    0.30953    1.000
    N2370    N        0.37017    0.63936    0.35836    1.000
    Si2371   Si       0.47571    0.64132    0.32391    1.000
    Si2372   Si       0.40907    0.62005    0.29008    1.000
    Si2373   Si       0.40772    0.62059    0.35843    1.000
    N2374    N        0.43328    0.63040    0.32384    1.000
    N2375    N        0.41765    0.60503    0.25007    1.000
    N2376    N        0.38084    0.65207    0.28689    1.000
    N2377    N        0.31888    0.62687    0.42477    1.000
    N2378    N        0.24901    0.60996    0.47657    1.000
    Si2379   Si       0.44275    0.59893    0.49679    1.000
    Si2380   Si       0.41745    0.59818    0.41916    1.000
    N2381    N        0.48340    0.63980    0.43573    1.000
    N2382    N        0.42307    0.62232    0.46491    1.000
    N2383    N        0.42296    0.63676    0.39670    1.000
    Si2384   Si       0.37915    0.61982    0.46839    1.000
    N2385    N        0.26543    0.62864    0.54391    1.000
    Si2386   Si       0.32898    0.61663    0.52678    1.000
    Si2387   Si       0.32975    0.64479    0.58977    1.000
    Si2388   Si       0.25798    0.65169    0.58145    1.000
    N2389    N        0.34601    0.65191    0.55039    1.000
    Si2390   Si       0.26642    0.64233    0.50040    1.000
    N2391    N        0.31938    0.60053    0.59201    1.000
    N2392    N        0.36504    0.60297    0.50635    1.000
    N2393    N        0.30855    0.64680    0.49794    1.000
    N2394    N        0.24021    0.62959    0.61550    1.000
    N2395    N        0.36484    0.64870    0.61503    1.000
    Si2396   Si       0.46678    0.60500    0.61491    1.000
    N2397    N        0.42348    0.60620    0.60600    1.000
    N2398    N        0.45525    0.62958    0.52434    1.000
    N2399    N        0.48878    0.62542    0.58537    1.000
    N2400    N        0.28705    0.64886    0.71691    1.000
    N2401    N        0.35125    0.64863    0.70609    1.000
    N2402    N        0.32124    0.62576    0.65626    1.000
    Si2403   Si       0.31588    0.62353    0.69829    1.000
    Si2404   Si       0.35516    0.65373    0.65983    1.000
    Si2405   Si       0.24233    0.64805    0.73630    1.000
    N2406    N        0.47781    0.61463    0.65468    1.000
    Si2407   Si       0.40764    0.64309    0.62345    1.000
    Si2408   Si       0.39726    0.62745    0.70858    1.000
    N2409    N        0.43924    0.61665    0.71332    1.000
    N2410    N        0.39749    0.64021    0.66580    1.000
    N2411    N        0.26517    0.63351    0.77169    1.000
    Si2412   Si       0.30692    0.63875    0.76013    1.000
    N2413    N        0.29363    0.60947    0.86398    1.000
    Si2414   Si       0.25091    0.60396    0.86355    1.000
    N2415    N        0.32705    0.60185    0.76568    1.000
    Si2416   Si       0.30837    0.65146    0.86901    1.000
    Si2417   Si       0.40746    0.63842    0.79297    1.000
    N2418    N        0.37712    0.61992    0.81785    1.000
    N2419    N        0.44185    0.61229    0.78370    1.000
    Si2420   Si       0.38197    0.61341    0.86101    1.000
    N2421    N        0.39308    0.64352    0.75240    1.000
    Si2422   Si       0.46025    0.62976    0.74981    1.000
    N2423    N        0.42303    0.60626    0.86928    1.000
    N2424    N        0.35242    0.64214    0.88083    1.000
    N2425    N        0.25447    0.61176    0.94599    1.000
    Si2426   Si       0.35585    0.62197    0.92155    1.000
    Si2427   Si       0.25139    0.64859    0.92336    1.000
    N2428    N        0.34626    0.65594    0.94855    1.000
    N2429    N        0.45652    0.62507    0.93116    1.000
    Si2430   Si       0.44057    0.63700    0.89206    1.000
    Si2431   Si       0.42444    0.62743    0.96260    1.000
    N2432    N        0.39245    0.60741    0.94101    1.000
    Si2433   Si       0.36525    0.65803    0.98811    1.000
    Si2434   Si       0.27235    0.68664    0.08584    1.000
    N2435    N        0.33980    0.68330    0.01038    1.000
    Si2436   Si       0.33595    0.67270    0.05226    1.000
    N2437    N        0.31345    0.69922    0.07732    1.000
    N2438    N        0.24292    0.67469    0.05511    1.000
    N2439    N        0.37613    0.68021    0.07017    1.000
    N2440    N        0.43753    0.69410    0.06537    1.000
    Si2441   Si       0.43240    0.68268    0.01790    1.000
    Si2442   Si       0.45226    0.71520    0.10052    1.000
    N2443    N        0.28466    0.68866    0.17036    1.000
    Si2444   Si       0.30565    0.69381    0.20758    1.000
    N2445    N        0.32815    0.65814    0.21634    1.000
    Si2446   Si       0.44572    0.68297    0.22040    1.000
    N2447    N        0.47645    0.70921    0.20081    1.000
    Si2448   Si       0.47036    0.68226    0.16581    1.000
    N2449    N        0.40107    0.68221    0.22531    1.000
    Si2450   Si       0.36874    0.66095    0.20059    1.000
    N2451    N        0.36610    0.68172    0.16317    1.000
    N2452    N        0.44176    0.69979    0.14073    1.000
    N2453    N        0.32941    0.67327    0.32886    1.000
    Si2454   Si       0.26623    0.70558    0.26971    1.000
    N2455    N        0.26898    0.66283    0.27272    1.000
    Si2456   Si       0.35885    0.68125    0.36394    1.000
    Si2457   Si       0.25242    0.68233    0.36738    1.000
    Si2458   Si       0.33071    0.71400    0.31385    1.000
    N2459    N        0.25922    0.65482    0.33657    1.000
    Si2460   Si       0.46453    0.70291    0.28489    1.000
    Si2461   Si       0.38849    0.69006    0.26744    1.000
    N2462    N        0.46730    0.66826    0.25424    1.000
    N2463    N        0.40432    0.69746    0.36527    1.000
    N2464    N        0.48284    0.68366    0.31841    1.000
    N2465    N        0.42358    0.71398    0.27772    1.000
    Si2466   Si       0.33339    0.68302    0.48706    1.000
    N2467    N        0.35297    0.68127    0.40782    1.000
    N2468    N        0.28385    0.68779    0.39715    1.000
    N2469    N        0.30777    0.70251    0.45708    1.000
    Si2470   Si       0.31486    0.66891    0.42246    1.000
    Si2471   Si       0.26481    0.71299    0.47050    1.000
    N2472    N        0.25137    0.68351    0.49818    1.000
    Si2473   Si       0.38119    0.69442    0.43850    1.000
    N2474    N        0.36888    0.66300    0.46730    1.000
    Si2475   Si       0.43211    0.68086    0.38988    1.000
    N2476    N        0.47385    0.68701    0.38430    1.000
    N2477    N        0.42442    0.69044    0.43156    1.000
    N2478    N        0.45653    0.68474    0.48507    1.000
    Si2479   Si       0.44647    0.65587    0.45265    1.000
    N2480    N        0.29417    0.66967    0.59839    1.000
    N2481    N        0.34631    0.71016    0.51659    1.000
    Si2482   Si       0.40333    0.71817    0.61218    1.000
    Si2483   Si       0.36923    0.68813    0.54744    1.000
    Si2484   Si       0.44988    0.67429    0.52611    1.000
    N2485    N        0.41316    0.69307    0.53935    1.000
    N2486    N        0.47833    0.68699    0.55705    1.000
    N2487    N        0.42648    0.68143    0.61912    1.000
    Si2488   Si       0.36424    0.67437    0.73925    1.000
    Si2489   Si       0.30123    0.70187    0.62899    1.000
    Si2490   Si       0.27805    0.68708    0.69616    1.000
    N2491    N        0.33260    0.69291    0.65848    1.000
    N2492    N        0.26780    0.70405    0.65719    1.000
    N2493    N        0.44421    0.69269    0.68831    1.000
    N2494    N        0.37698    0.70918    0.71471    1.000
    Si2495   Si       0.45747    0.69476    0.64737    1.000
    Si2496   Si       0.47831    0.69351    0.71657    1.000
    Si2497   Si       0.26780    0.69854    0.81902    1.000
    N2498    N        0.33016    0.67339    0.76567    1.000
    N2499    N        0.30284    0.68180    0.83845    1.000
    Si2500   Si       0.30724    0.70972    0.76157    1.000
    N2501    N        0.26726    0.70987    0.77749    1.000
    N2502    N        0.37386    0.70143    0.84203    1.000
    Si2503   Si       0.45847    0.68999    0.79165    1.000
    N2504    N        0.42236    0.67428    0.80878    1.000
    N2505    N        0.46559    0.67193    0.75334    1.000
    N2506    N        0.49212    0.69893    0.81751    1.000
    N2507    N        0.34703    0.70513    0.90329    1.000
    Si2508   Si       0.31939    0.68320    0.93019    1.000
    N2509    N        0.28894    0.66364    0.90694    1.000
    N2510    N        0.41293    0.66928    0.89702    1.000
    Si2511   Si       0.44527    0.69701    0.88974    1.000
    N2512    N        0.46862    0.66436    0.87302    1.000
    Si2513   Si       0.48151    0.71032    0.96072    1.000
    Si2514   Si       0.37467    0.68095    0.88149    1.000
    N2515    N        0.47134    0.68621    0.99739    1.000
    N2516    N        0.40849    0.66097    0.98109    1.000
    Si2517   Si       0.33216    0.73670    0.09224    1.000
    N2518    N        0.31822    0.75424    0.01418    1.000
    N2519    N        0.25707    0.72620    0.01241    1.000
    Si2520   Si       0.27661    0.76280    0.01308    1.000
    N2521    N        0.25517    0.71607    0.11431    1.000
    N2522    N        0.36613    0.75129    0.06694    1.000
    N2523    N        0.31054    0.77244    0.07923    1.000
    N2524    N        0.48915    0.73410    0.10684    1.000
    N2525    N        0.41844    0.74463    0.10153    1.000
    N2526    N        0.40751    0.71903    0.01801    1.000
    Si2527   Si       0.39751    0.72073    0.06312    1.000
    N2528    N        0.32529    0.73254    0.13551    1.000
    Si2529   Si       0.25216    0.74617    0.21035    1.000
    N2530    N        0.33572    0.72477    0.20775    1.000
    Si2531   Si       0.35405    0.72302    0.16723    1.000
    Si2532   Si       0.28365    0.72554    0.14670    1.000
    N2533    N        0.27135    0.75962    0.17260    1.000
    Si2534   Si       0.34687    0.74626    0.24570    1.000
    N2535    N        0.27701    0.71725    0.23077    1.000
    N2536    N        0.38948    0.74763    0.17432    1.000
    N2537    N        0.38697    0.76143    0.24505    1.000
    Si2538   Si       0.42148    0.73866    0.14716    1.000
    N2539    N        0.45318    0.76863    0.15664    1.000
    Si2540   Si       0.48999    0.76964    0.13561    1.000
    N2541    N        0.48632    0.77532    0.21644    1.000
    Si2542   Si       0.26852    0.74895    0.32751    1.000
    N2543    N        0.34788    0.72780    0.35224    1.000
    N2544    N        0.24980    0.72799    0.36233    1.000
    Si2545   Si       0.32882    0.76405    0.36838    1.000
    N2546    N        0.28744    0.71853    0.30547    1.000
    N2547    N        0.35278    0.71599    0.27737    1.000
    N2548    N        0.48531    0.74869    0.35897    1.000
    Si2549   Si       0.41394    0.75614    0.27967    1.000
    N2550    N        0.40059    0.75988    0.32178    1.000
    Si2551   Si       0.39297    0.74088    0.36224    1.000
    N2552    N        0.24380    0.72306    0.43418    1.000
    N2553    N        0.26055    0.75262    0.49040    1.000
    N2554    N        0.32477    0.76666    0.48190    1.000
    N2555    N        0.30627    0.75812    0.40686    1.000
    Si2556   Si       0.32775    0.74274    0.44432    1.000
    Si2557   Si       0.26995    0.72812    0.40143    1.000
    Si2558   Si       0.46539    0.75711    0.39544    1.000
    N2559    N        0.36955    0.73746    0.44157    1.000
    Si2560   Si       0.40124    0.76761    0.43226    1.000
    N2561    N        0.48038    0.73681    0.43172    1.000
    N2562    N        0.42045    0.75618    0.39414    1.000
    Si2563   Si       0.44874    0.71811    0.45644    1.000
    N2564    N        0.42656    0.75481    0.46681    1.000
    Si2565   Si       0.33817    0.74974    0.58707    1.000
    N2566    N        0.30314    0.74086    0.60935    1.000
    Si2567   Si       0.35015    0.75478    0.51729    1.000
    Si2568   Si       0.26963    0.76811    0.61842    1.000
    N2569    N        0.32905    0.77126    0.55139    1.000
    Si2570   Si       0.47199    0.74990    0.60604    1.000
    N2571    N        0.46012    0.74459    0.52906    1.000
    N2572    N        0.43162    0.74398    0.58901    1.000
    Si2573   Si       0.42247    0.73551    0.54799    1.000
    N2574    N        0.39573    0.76256    0.53027    1.000
    N2575    N        0.36760    0.71563    0.58312    1.000
    N2576    N        0.33860    0.75935    0.68093    1.000
    N2577    N        0.25719    0.76287    0.72572    1.000
    Si2578   Si       0.34035    0.71819    0.69242    1.000
    Si2579   Si       0.24258    0.72603    0.74482    1.000
    N2580    N        0.30587    0.70999    0.71850    1.000
    N2581    N        0.46834    0.73562    0.64534    1.000
    Si2582   Si       0.37306    0.76907    0.65502    1.000
    N2583    N        0.43289    0.76186    0.70065    1.000
    Si2584   Si       0.41331    0.72320    0.69171    1.000
    N2585    N        0.39355    0.73021    0.65351    1.000
    Si2586   Si       0.47340    0.75958    0.68224    1.000
    N2587    N        0.32652    0.73347    0.79283    1.000
    N2588    N        0.25707    0.73408    0.84238    1.000
    N2589    N        0.31989    0.75375    0.84862    1.000
    Si2590   Si       0.28207    0.75944    0.86784    1.000
    Si2591   Si       0.33199    0.71429    0.83362    1.000
    N2592    N        0.39797    0.76101    0.81977    1.000
    N2593    N        0.43836    0.72848    0.78744    1.000
    N2594    N        0.43449    0.72640    0.86007    1.000
    Si2595   Si       0.40529    0.75765    0.86603    1.000
    Si2596   Si       0.41029    0.71571    0.82122    1.000
    Si2597   Si       0.35830    0.74069    0.92612    1.000
    Si2598   Si       0.29039    0.75715    0.94124    1.000
    N2599    N        0.26235    0.75615    0.90744    1.000
    Si2600   Si       0.33013    0.72107    0.98904    1.000
    N2601    N        0.30382    0.71758    0.95280    1.000
    N2602    N        0.39598    0.75242    0.90822    1.000
    Si2603   Si       0.39952    0.74911    0.98823    1.000
    N2604    N        0.36816    0.72973    0.96694    1.000
    N2605    N        0.43316    0.76357    0.96730    1.000
    Si2606   Si       0.43554    0.75380    0.92573    1.000
    N2607    N        0.45296    0.71472    0.92650    1.000
    Si2608   Si       0.27944    0.80319    0.07822    1.000
    N2609    N        0.25266    0.79602    0.11237    1.000
    N2610    N        0.26004    0.79086    0.04085    1.000
    N2611    N        0.33587    0.82109    0.03273    1.000
    Si2612   Si       0.33992    0.77829    0.04234    1.000
    Si2613   Si       0.36146    0.82346    0.99902    1.000
    N2614    N        0.41219    0.80694    0.06746    1.000
    Si2615   Si       0.41540    0.81221    0.02290    1.000
    N2616    N        0.45657    0.80953    0.01020    1.000
    N2617    N        0.38514    0.78613    0.00652    1.000
    Si2618   Si       0.39167    0.77777    0.09210    1.000
    N2619    N        0.36975    0.79028    0.12547    1.000
    Si2620   Si       0.27146    0.79759    0.15382    1.000
    Si2621   Si       0.34724    0.81135    0.15402    1.000
    N2622    N        0.34782    0.79586    0.19292    1.000
    Si2623   Si       0.32315    0.80898    0.22726    1.000
    N2624    N        0.30511    0.82260    0.14445    1.000
    Si2625   Si       0.24387    0.82002    0.21961    1.000
    N2626    N        0.24296    0.82342    0.17717    1.000
    Si2627   Si       0.38775    0.78043    0.20382    1.000
    Si2628   Si       0.45994    0.79609    0.18890    1.000
    N2629    N        0.42072    0.80882    0.20230    1.000
    N2630    N        0.48368    0.82722    0.16799    1.000
    Si2631   Si       0.31762    0.79478    0.29939    1.000
    Si2632   Si       0.26359    0.81240    0.33348    1.000
    N2633    N        0.35691    0.81047    0.30676    1.000
    N2634    N        0.31852    0.77819    0.25823    1.000
    N2635    N        0.29270    0.82999    0.30412    1.000
    N2636    N        0.36567    0.78766    0.37064    1.000
    N2637    N        0.24355    0.78020    0.30955    1.000
    N2638    N        0.30271    0.77420    0.33591    1.000
    Si2639   Si       0.44385    0.82088    0.29685    1.000
    Si2640   Si       0.38633    0.79798    0.33355    1.000
    N2641    N        0.45196    0.78239    0.27874    1.000
    N2642    N        0.41887    0.82759    0.33157    1.000
    N2643    N        0.32432    0.82967    0.41709    1.000
    N2644    N        0.26860    0.81499    0.38018    1.000
    Si2645   Si       0.29149    0.80232    0.41403    1.000
    Si2646   Si       0.28693    0.78675    0.48618    1.000
    N2647    N        0.27235    0.80899    0.45299    1.000
    Si2648   Si       0.36176    0.81988    0.39861    1.000
    N2649    N        0.38816    0.80859    0.43201    1.000
    N2650    N        0.48146    0.79696    0.41175    1.000
    N2651    N        0.26844    0.79913    0.58650    1.000
    Si2652   Si       0.30223    0.80565    0.55844    1.000
    N2653    N        0.28149    0.81332    0.52055    1.000
    Si2654   Si       0.36248    0.81698    0.59974    1.000
    N2655    N        0.36059    0.77640    0.61477    1.000
    N2656    N        0.32618    0.83240    0.58254    1.000
    N2657    N        0.39538    0.82722    0.57337    1.000
    N2658    N        0.47750    0.79268    0.60340    1.000
    Si2659   Si       0.40128    0.80625    0.53593    1.000
    N2660    N        0.44198    0.81216    0.52176    1.000
    Si2661   Si       0.48278    0.82700    0.52236    1.000
    N2662    N        0.37852    0.82450    0.50466    1.000
    Si2663   Si       0.44850    0.77400    0.49928    1.000
    N2664    N        0.26784    0.78280    0.65853    1.000
    N2665    N        0.32812    0.79719    0.73737    1.000
    Si2666   Si       0.33895    0.80172    0.69741    1.000
    Si2667   Si       0.28449    0.79303    0.74628    1.000
    Si2668   Si       0.47736    0.82073    0.63787    1.000
    Si2669   Si       0.41045    0.79569    0.71465    1.000
    N2670    N        0.38144    0.80453    0.68309    1.000
    N2671    N        0.43620    0.82945    0.70266    1.000
    N2672    N        0.27413    0.80019    0.85275    1.000
    N2673    N        0.34876    0.80347    0.80487    1.000
    N2674    N        0.28209    0.78878    0.78814    1.000
    Si2675   Si       0.25043    0.79986    0.81572    1.000
    Si2676   Si       0.36103    0.81142    0.76370    1.000
    Si2677   Si       0.31729    0.77204    0.80924    1.000
    Si2678   Si       0.38385    0.80606    0.82935    1.000
    N2679    N        0.45162    0.79958    0.80532    1.000
    N2680    N        0.39963    0.78988    0.75569    1.000
    N2681    N        0.40251    0.80105    0.86647    1.000
    Si2682   Si       0.42648    0.77060    0.78560    1.000
    N2683    N        0.26833    0.77897    0.97228    1.000
    Si2684   Si       0.32733    0.81687    0.92659    1.000
    N2685    N        0.32932    0.77280    0.92871    1.000
    N2686    N        0.41289    0.82767    0.93006    1.000
    Si2687   Si       0.47244    0.78298    0.98007    1.000
    Si2688   Si       0.43345    0.81556    0.89343    1.000
    N2689    N        0.45961    0.78187    0.90404    1.000
    Si2690   Si       0.32104    0.85702    0.04720    1.000
    Si2691   Si       0.25626    0.86513    0.01722    1.000
    N2692    N        0.29430    0.84543    0.07802    1.000
    N2693    N        0.29783    0.87724    0.01546    1.000
    Si2694   Si       0.29511    0.85934    0.12047    1.000
    N2695    N        0.38714    0.86467    0.09645    1.000
    N2696    N        0.45408    0.86369    0.05182    1.000
    Si2697   Si       0.42446    0.84468    0.07989    1.000
    Si2698   Si       0.48045    0.84365    0.02386    1.000
    N2699    N        0.39451    0.84962    0.01260    1.000
    N2700    N        0.44317    0.84316    0.11912    1.000
    Si2701   Si       0.38257    0.89111    0.01537    1.000
    N2702    N        0.25429    0.87226    0.12712    1.000
    Si2703   Si       0.29275    0.87589    0.22552    1.000
    N2704    N        0.32841    0.88580    0.20074    1.000
    N2705    N        0.35090    0.83801    0.24228    1.000
    Si2706   Si       0.36250    0.85828    0.20400    1.000
    N2707    N        0.28524    0.83254    0.22692    1.000
    N2708    N        0.37046    0.84724    0.16299    1.000
    N2709    N        0.39982    0.87761    0.21411    1.000
    N2710    N        0.46942    0.85022    0.22796    1.000
    Si2711   Si       0.48544    0.83964    0.12556    1.000
    Si2712   Si       0.40384    0.86035    0.13699    1.000
    Si2713   Si       0.42523    0.84369    0.22766    1.000
    Si2714   Si       0.31008    0.87033    0.29878    1.000
    N2715    N        0.35296    0.87681    0.30038    1.000
    Si2716   Si       0.33928    0.88655    0.36539    1.000
    N2717    N        0.30334    0.88943    0.33805    1.000
    N2718    N        0.29583    0.89225    0.26585    1.000
    Si2719   Si       0.48381    0.87362    0.26403    1.000
    Si2720   Si       0.37119    0.84269    0.28034    1.000
    Si2721   Si       0.41100    0.85808    0.36020    1.000
    N2722    N        0.41219    0.83824    0.26857    1.000
    N2723    N        0.48069    0.84046    0.29546    1.000
    N2724    N        0.27958    0.88281    0.45094    1.000
    Si2725   Si       0.25100    0.84599    0.45335    1.000
    Si2726   Si       0.32137    0.86773    0.43847    1.000
    N2727    N        0.35715    0.87132    0.46355    1.000
    N2728    N        0.25669    0.89124    0.38411    1.000
    N2729    N        0.36881    0.85449    0.37207    1.000
    N2730    N        0.43913    0.84661    0.39035    1.000
    N2731    N        0.42614    0.85990    0.45870    1.000
    Si2732   Si       0.38704    0.83903    0.46512    1.000
    Si2733   Si       0.44720    0.87347    0.42381    1.000
    Si2734   Si       0.44470    0.88337    0.49289    1.000
    Si2735   Si       0.48148    0.83661    0.39511    1.000
    Si2736   Si       0.31017    0.86770    0.60310    1.000
    N2737    N        0.24416    0.86062    0.55753    1.000
    N2738    N        0.27138    0.85668    0.62072    1.000
    Si2739   Si       0.24188    0.83470    0.52199    1.000
    Si2740   Si       0.24607    0.83695    0.59413    1.000
    Si2741   Si       0.41343    0.85262    0.60455    1.000
    Si2742   Si       0.47911    0.87827    0.59247    1.000
    N2743    N        0.43729    0.88600    0.58935    1.000
    N2744    N        0.48270    0.84856    0.56112    1.000
    N2745    N        0.48421    0.86533    0.49915    1.000
    Si2746   Si       0.29128    0.85737    0.70465    1.000
    Si2747   Si       0.34783    0.86325    0.66076    1.000
    N2748    N        0.25778    0.87868    0.68834    1.000
    N2749    N        0.32688    0.89046    0.63550    1.000
    Si2750   Si       0.36100    0.88663    0.72866    1.000
    N2751    N        0.31817    0.88872    0.72141    1.000
    N2752    N        0.27182    0.83357    0.73551    1.000
    N2753    N        0.32023    0.83613    0.67754    1.000
    Si2754   Si       0.40615    0.84033    0.67022    1.000
    N2755    N        0.38033    0.87527    0.68814    1.000
    N2756    N        0.43712    0.83655    0.63885    1.000
    N2757    N        0.37607    0.84496    0.63084    1.000
    N2758    N        0.49222    0.86364    0.74121    1.000
    Si2759   Si       0.45381    0.86399    0.72165    1.000
    N2760    N        0.30244    0.86889    0.85965    1.000
    N2761    N        0.36850    0.85329    0.75525    1.000
    Si2762   Si       0.23899    0.84768    0.76204    1.000
    N2763    N        0.46825    0.87258    0.81074    1.000
    Si2764   Si       0.40052    0.86801    0.78295    1.000
    N2765    N        0.40214    0.84201    0.81605    1.000
    N2766    N        0.43189    0.87881    0.75604    1.000
    Si2767   Si       0.44490    0.83921    0.82428    1.000
    N2768    N        0.45488    0.84178    0.86820    1.000
    Si2769   Si       0.47528    0.89092    0.77182    1.000
    Si2770   Si       0.27832    0.83784    0.87464    1.000
    N2771    N        0.35192    0.84216    0.89908    1.000
    Si2772   Si       0.33728    0.87928    0.88377    1.000
    Si2773   Si       0.25189    0.84977    0.93804    1.000
    N2774    N        0.24492    0.84472    0.98282    1.000
    N2775    N        0.28624    0.83078    0.91713    1.000
    N2776    N        0.34961    0.83466    0.96140    1.000
    N2777    N        0.47149    0.87455    0.92352    1.000
    Si2778   Si       0.37839    0.85282    0.93333    1.000
    Si2779   Si       0.49036    0.85962    0.88658    1.000
    N2780    N        0.26125    0.93431    0.09844    1.000
    Si2781   Si       0.32346    0.91213    0.01363    1.000
    N2782    N        0.32353    0.89538    0.11434    1.000
    Si2783   Si       0.36038    0.89840    0.09015    1.000
    Si2784   Si       0.29985    0.93353    0.12082    1.000
    N2785    N        0.34935    0.89151    0.04743    1.000
    Si2786   Si       0.45147    0.90643    0.05157    1.000
    N2787    N        0.38090    0.93600    0.09867    1.000
    N2788    N        0.45065    0.92314    0.09084    1.000
    N2789    N        0.41768    0.91703    0.02417    1.000
    N2790    N        0.47714    0.93362    0.02272    1.000
    Si2791   Si       0.44166    0.94547    0.00022    1.000
    Si2792   Si       0.42005    0.93198    0.11901    1.000
    Si2793   Si       0.27108    0.94029    0.19913    1.000
    N2794    N        0.25855    0.89914    0.20984    1.000
    N2795    N        0.29617    0.93543    0.16409    1.000
    Si2796   Si       0.32971    0.92712    0.19046    1.000
    N2797    N        0.30556    0.94754    0.22482    1.000
    N2798    N        0.36977    0.93909    0.18689    1.000
    Si2799   Si       0.45720    0.93856    0.24037    1.000
    N2800    N        0.41343    0.90082    0.14885    1.000
    Si2801   Si       0.40623    0.91369    0.19030    1.000
    N2802    N        0.43677    0.94134    0.20115    1.000
    Si2803   Si       0.29795    0.93516    0.26796    1.000
    Si2804   Si       0.26910    0.91712    0.35053    1.000
    Si2805   Si       0.35918    0.91948    0.30819    1.000
    N2806    N        0.36203    0.92181    0.35372    1.000
    N2807    N        0.32791    0.94635    0.29741    1.000
    N2808    N        0.45565    0.90728    0.26959    1.000
    N2809    N        0.39367    0.93140    0.28569    1.000
    Si2810   Si       0.43065    0.91938    0.30581    1.000
    N2811    N        0.42674    0.89504    0.34281    1.000
    N2812    N        0.48163    0.92687    0.37265    1.000
    Si2813   Si       0.43431    0.92857    0.36981    1.000
    Si2814   Si       0.25353    0.90238    0.47893    1.000
    Si2815   Si       0.27918    0.90909    0.41568    1.000
    N2816    N        0.32204    0.89571    0.40392    1.000
    Si2817   Si       0.42577    0.93910    0.44551    1.000
    N2818    N        0.38324    0.93273    0.46185    1.000
    N2819    N        0.44988    0.92427    0.47737    1.000
    N2820    N        0.43123    0.91077    0.41208    1.000
    Si2821   Si       0.37542    0.90134    0.49132    1.000
    Si2822   Si       0.33949    0.91924    0.55906    1.000
    N2823    N        0.27232    0.91728    0.51511    1.000
    N2824    N        0.34159    0.91034    0.51712    1.000
    Si2825   Si       0.26211    0.90086    0.55396    1.000
    Si2826   Si       0.30863    0.93988    0.51209    1.000
    N2827    N        0.30419    0.89734    0.57243    1.000
    N2828    N        0.37763    0.91720    0.57940    1.000
    Si2829   Si       0.41544    0.90934    0.55748    1.000
    Si2830   Si       0.46791    0.94647    0.50780    1.000
    Si2831   Si       0.38031    0.94484    0.61345    1.000
    N2832    N        0.44012    0.94714    0.54464    1.000
    N2833    N        0.40992    0.89066    0.51803    1.000
    N2834    N        0.32273    0.94488    0.68296    1.000
    N2835    N        0.27415    0.92953    0.63424    1.000
    Si2836   Si       0.31741    0.93189    0.64220    1.000
    Si2837   Si       0.30542    0.92967    0.71807    1.000
    N2838    N        0.26180    0.94047    0.71619    1.000
    Si2839   Si       0.25798    0.89086    0.64641    1.000
    N2840    N        0.44669    0.89869    0.69531    1.000
    Si2841   Si       0.40459    0.91259    0.68916    1.000
    N2842    N        0.46762    0.94700    0.65202    1.000
    Si2843   Si       0.46766    0.93623    0.69418    1.000
    N2844    N        0.40215    0.93354    0.64959    1.000
    N2845    N        0.38671    0.92234    0.72822    1.000
    N2846    N        0.32397    0.91965    0.81669    1.000
    Si2847   Si       0.29088    0.90740    0.84086    1.000
    N2848    N        0.25002    0.90496    0.82609    1.000
    N2849    N        0.32236    0.94754    0.75504    1.000
    Si2850   Si       0.36784    0.92763    0.82627    1.000
    N2851    N        0.36741    0.90433    0.86459    1.000
    N2852    N        0.39121    0.90966    0.79458    1.000
    N2853    N        0.46248    0.93238    0.76263    1.000
    Si2854   Si       0.41904    0.92753    0.76036    1.000
    N2855    N        0.28855    0.93312    0.87778    1.000
    Si2856   Si       0.29004    0.92031    0.92113    1.000
    N2857    N        0.35721    0.91102    0.98679    1.000
    N2858    N        0.32675    0.89738    0.92284    1.000
    Si2859   Si       0.36092    0.91697    0.94449    1.000
    N2860    N        0.25614    0.89677    0.93480    1.000
    Si2861   Si       0.39435    0.93063    0.88754    1.000
    N2862    N        0.39602    0.89412    0.92937    1.000
    N2863    N        0.43827    0.93667    0.89655    1.000
    N2864    N        0.44790    0.93420    0.95872    1.000
    Si2865   Si       0.43935    0.90327    0.92728    1.000
    N2866    N        0.32048    0.96825    0.10640    1.000
    Si2867   Si       0.28900    0.98735    0.03283    1.000
    N2868    N        0.24675    0.98153    0.04499    1.000
    N2869    N        0.30499    0.94855    0.02656    1.000
    Si2870   Si       0.29789    0.00471    0.10145    1.000
    Si2871   Si       0.36257    0.97495    0.09291    1.000
    Si2872   Si       0.47978    0.96004    0.10524    1.000
    N2873    N        0.39402    0.99323    0.06739    1.000
    N2874    N        0.47148    0.98835    0.06897    1.000
    N2875    N        0.43036    0.98674    0.00817    1.000
    Si2876   Si       0.43471    0.00015    0.05013    1.000
    Si2877   Si       0.32508    0.98739    0.22707    1.000
    N2878    N        0.33972    0.99875    0.18787    1.000
    N2879    N        0.44403    0.96610    0.13437    1.000
    N2880    N        0.36661    0.98141    0.24305    1.000
    N2881    N        0.48361    0.99523    0.18986    1.000
    Si2882   Si       0.44660    0.97591    0.17751    1.000
    Si2883   Si       0.37843    0.98095    0.19931    1.000
    N2884    N        0.41217    0.00366    0.18417    1.000
    N2885    N        0.34993    0.98736    0.34593    1.000
    Si2886   Si       0.31436    0.97292    0.32802    1.000
    N2887    N        0.26506    0.95738    0.28610    1.000
    Si2888   Si       0.27010    0.00031    0.28408    1.000
    N2889    N        0.29368    0.95295    0.35973    1.000
    N2890    N        0.44125    0.97235    0.26268    1.000
    Si2891   Si       0.39729    0.97274    0.26931    1.000
    Si2892   Si       0.44749    0.99275    0.30074    1.000
    N2893    N        0.40025    0.99869    0.30184    1.000
    Si2894   Si       0.48389    0.96559    0.35046    1.000
    N2895    N        0.44452    0.95324    0.32845    1.000
    N2896    N        0.46609    0.99945    0.37226    1.000
    Si2897   Si       0.35321    0.96400    0.45456    1.000
    N2898    N        0.31731    0.96741    0.48035    1.000
    Si2899   Si       0.29914    0.97340    0.39928    1.000
    N2900    N        0.33988    0.96630    0.41216    1.000
    N2901    N        0.26975    0.94983    0.42115    1.000
    N2902    N        0.26785    0.00776    0.45409    1.000
    Si2903   Si       0.24175    0.97198    0.44585    1.000
    Si2904   Si       0.36412    0.95889    0.37608    1.000
    N2905    N        0.44230    0.97948    0.43752    1.000
    Si2906   Si       0.47456    0.00403    0.46100    1.000
    N2907    N        0.37707    0.99828    0.46534    1.000
    Si2908   Si       0.42946    0.99950    0.39448    1.000
    N2909    N        0.40751    0.96133    0.38411    1.000
    Si2910   Si       0.31573    0.98160    0.58813    1.000
    N2911    N        0.27258    0.98943    0.59119    1.000
    N2912    N        0.32023    0.95776    0.55107    1.000
    N2913    N        0.33898    0.95864    0.61656    1.000
    N2914    N        0.26264    0.00365    0.52041    1.000
    Si2915   Si       0.25014    0.95563    0.60686    1.000
    Si2916   Si       0.44311    0.98080    0.57317    1.000
    N2917    N        0.40291    0.97718    0.59453    1.000
    N2918    N        0.48402    0.97348    0.58996    1.000
    N2919    N        0.35400    0.00021    0.72826    1.000
    Si2920   Si       0.25375    0.97398    0.74076    1.000
    Si2921   Si       0.43113    0.97187    0.65727    1.000
    Si2922   Si       0.43520    0.99372    0.73517    1.000
    N2923    N        0.39758    0.00047    0.66271    1.000
    N2924    N        0.43870    0.96648    0.70315    1.000
    N2925    N        0.47767    0.00302    0.74034    1.000
    N2926    N        0.45457    0.00883    0.63425    1.000
    N2927    N        0.29277    0.97852    0.82423    1.000
    N2928    N        0.36057    0.97054    0.80005    1.000
    Si2929   Si       0.28775    0.97528    0.86793    1.000
    Si2930   Si       0.26104    0.99823    0.80039    1.000
    Si2931   Si       0.31936    0.95855    0.79685    1.000
    N2932    N        0.28067    0.00300    0.75985    1.000
    N2933    N        0.24490    0.95836    0.78078    1.000
    Si2934   Si       0.36595    0.96331    0.75231    1.000
    N2935    N        0.44841    0.98043    0.81964    1.000
    Si2936   Si       0.40393    0.98277    0.80847    1.000
    N2937    N        0.41029    0.97127    0.76378    1.000
    Si2938   Si       0.44385    0.96412    0.85987    1.000
    N2939    N        0.39947    0.95482    0.84725    1.000
    N2940    N        0.29405    0.95626    0.94616    1.000
    N2941    N        0.24908    0.99515    0.87906    1.000
    Si2942   Si       0.30477    0.99622    0.95774    1.000
    N2943    N        0.31517    0.99923    0.88883    1.000
    N2944    N        0.41612    0.99138    0.94303    1.000
    Si2945   Si       0.44932    0.96793    0.92736    1.000
    N2946    N        0.48769    0.99111    0.92976    1.000
    N2947    N        0.43981    0.00444    0.87931    1.000
    N2948    N        0.36989    0.95103    0.91705    1.000
    Si2949   Si       0.37509    0.99454    0.92497    1.000
    N2950    N        0.57638    0.03762    0.02269    1.000
    Si2951   Si       0.57107    0.02731    0.06542    1.000
    N2952    N        0.61153    0.02398    0.08161    1.000
    N2953    N        0.55752    0.06577    0.08300    1.000
    Si2954   Si       0.70016    0.05011    0.05402    1.000
    N2955    N        0.67222    0.05712    0.08608    1.000
    Si2956   Si       0.62925    0.06215    0.08719    1.000
    N2957    N        0.68998    0.01380    0.03304    1.000
    Si2958   Si       0.57896    0.04023    0.20165    1.000
    N2959    N        0.54401    0.02820    0.17695    1.000
    N2960    N        0.49695    0.05625    0.14559    1.000
    N2961    N        0.58204    0.02990    0.24459    1.000
    Si2962   Si       0.50561    0.01617    0.15844    1.000
    N2963    N        0.51611    0.01614    0.24812    1.000
    Si2964   Si       0.63615    0.07117    0.16049    1.000
    N2965    N        0.61393    0.03510    0.17737    1.000
    N2966    N        0.72294    0.04764    0.20460    1.000
    N2967    N        0.73362    0.04445    0.13182    1.000
    N2968    N        0.67685    0.05914    0.15415    1.000
    Si2969   Si       0.70793    0.03216    0.16633    1.000
    N2970    N        0.52188    0.03884    0.33442    1.000
    N2971    N        0.59048    0.05622    0.31264    1.000
    Si2972   Si       0.60449    0.05691    0.27044    1.000
    N2973    N        0.59925    0.02063    0.36876    1.000
    Si2974   Si       0.50245    0.05748    0.24834    1.000
    Si2975   Si       0.54828    0.06908    0.31331    1.000
    Si2976   Si       0.61919    0.05186    0.34447    1.000
    N2977    N        0.71798    0.05081    0.35095    1.000
    N2978    N        0.65788    0.03900    0.32805    1.000
    N2979    N        0.70604    0.04963    0.28455    1.000
    N2980    N        0.64356    0.03880    0.25890    1.000
    Si2981   Si       0.68574    0.01490    0.30518    1.000
    N2982    N        0.56493    0.06455    0.42707    1.000
    N2983    N        0.52875    0.02905    0.48243    1.000
    Si2984   Si       0.58466    0.03047    0.40917    1.000
    Si2985   Si       0.53075    0.03708    0.44058    1.000
    Si2986   Si       0.70952    0.03523    0.39046    1.000
    Si2987   Si       0.69830    0.04710    0.47889    1.000
    N2988    N        0.61512    0.02242    0.43962    1.000
    N2989    N        0.66915    0.04485    0.40420    1.000
    Si2990   Si       0.62150    0.03173    0.48256    1.000
    N2991    N        0.74150    0.05431    0.41222    1.000
    N2992    N        0.50908    0.03777    0.59542    1.000
    Si2993   Si       0.54256    0.02135    0.56844    1.000
    N2994    N        0.55100    0.05097    0.53963    1.000
    Si2995   Si       0.52223    0.06472    0.50900    1.000
    N2996    N        0.73401    0.04449    0.50508    1.000
    Si2997   Si       0.65771    0.05480    0.54167    1.000
    N2998    N        0.66604    0.01750    0.56047    1.000
    N2999    N        0.68736    0.05240    0.61825    1.000
    Si3000   Si       0.72793    0.06493    0.60928    1.000
    N3001    N        0.65865    0.04849    0.49867    1.000
    Si3002   Si       0.73106    0.07228    0.53942    1.000
    Si3003   Si       0.60594    0.02657    0.61951    1.000
    N3004    N        0.53034    0.04831    0.70948    1.000
    Si3005   Si       0.57423    0.04141    0.72099    1.000
    N3006    N        0.58839    0.01254    0.65748    1.000
    Si3007   Si       0.51375    0.02856    0.74533    1.000
    N3008    N        0.60820    0.01062    0.72172    1.000
    N3009    N        0.65633    0.03766    0.68121    1.000
    Si3010   Si       0.65934    0.06789    0.64839    1.000
    N3011    N        0.61964    0.06770    0.62680    1.000
    N3012    N        0.73118    0.04164    0.71622    1.000
    Si3013   Si       0.68742    0.04770    0.71624    1.000
    N3014    N        0.55396    0.03408    0.81969    1.000
    Si3015   Si       0.57790    0.02834    0.78512    1.000
    Si3016   Si       0.57011    0.02292    0.85989    1.000
    Si3017   Si       0.51733    0.05992    0.82206    1.000
    N3018    N        0.50644    0.05584    0.77672    1.000
    N3019    N        0.58414    0.06315    0.75937    1.000
    N3020    N        0.55231    0.00710    0.74971    1.000
    Si3021   Si       0.69726    0.02071    0.78574    1.000
    N3022    N        0.67085    0.02704    0.82086    1.000
    N3023    N        0.67037    0.02633    0.75070    1.000
    Si3024   Si       0.67401    0.07094    0.82765    1.000
    N3025    N        0.59774    0.05529    0.87309    1.000
    Si3026   Si       0.49509    0.03150    0.94542    1.000
    N3027    N        0.54726    0.01497    0.89700    1.000
    N3028    N        0.53463    0.03836    0.96244    1.000
    Si3029   Si       0.56163    0.04558    0.92719    1.000
    N3030    N        0.60482    0.03272    0.94051    1.000
    Si3031   Si       0.55146    0.01277    0.99529    1.000
    Si3032   Si       0.62671    0.04443    0.90268    1.000
    Si3033   Si       0.67566    0.01322    0.99278    1.000
    Si3034   Si       0.62792    0.06192    0.96262    1.000
    N3035    N        0.66035    0.05419    0.98792    1.000
    N3036    N        0.66394    0.02416    0.89596    1.000
    Si3037   Si       0.73235    0.04399    0.94975    1.000
    N3038    N        0.72824    0.05347    0.90744    1.000
    Si3039   Si       0.68592    0.06240    0.90391    1.000
    N3040    N        0.55312    0.10551    0.03207    1.000
    Si3041   Si       0.57646    0.09663    0.10861    1.000
    Si3042   Si       0.52747    0.08901    0.06146    1.000
    Si3043   Si       0.58863    0.07932    0.02160    1.000
    N3044    N        0.52624    0.12395    0.09083    1.000
    N3045    N        0.61748    0.08864    0.05422    1.000
    N3046    N        0.69997    0.09025    0.03254    1.000
    N3047    N        0.71368    0.10705    0.10094    1.000
    Si3048   Si       0.70252    0.12226    0.06058    1.000
    N3049    N        0.61366    0.08123    0.12485    1.000
    Si3050   Si       0.70041    0.07075    0.11900    1.000
    Si3051   Si       0.55347    0.10004    0.24050    1.000
    N3052    N        0.55148    0.10077    0.14644    1.000
    N3053    N        0.56766    0.08266    0.20250    1.000
    Si3054   Si       0.58697    0.11314    0.17627    1.000
    N3055    N        0.50396    0.07799    0.20974    1.000
    Si3056   Si       0.51698    0.12563    0.13377    1.000
    Si3057   Si       0.53270    0.07203    0.17554    1.000
    N3058    N        0.63014    0.10766    0.18487    1.000
    N3059    N        0.68201    0.09754    0.22673    1.000
    N3060    N        0.73631    0.12312    0.18451    1.000
    Si3061   Si       0.71973    0.09106    0.20892    1.000
    N3062    N        0.54179    0.10043    0.34087    1.000
    Si3063   Si       0.49875    0.09786    0.35290    1.000
    N3064    N        0.53197    0.07702    0.27361    1.000
    N3065    N        0.59722    0.09672    0.25681    1.000
    N3066    N        0.65831    0.09183    0.29204    1.000
    N3067    N        0.70915    0.11057    0.33305    1.000
    Si3068   Si       0.62806    0.11970    0.27904    1.000
    N3069    N        0.62567    0.08861    0.36610    1.000
    Si3070   Si       0.68864    0.07377    0.32154    1.000
    Si3071   Si       0.67396    0.06912    0.25885    1.000
    Si3072   Si       0.61354    0.12970    0.35674    1.000
    Si3073   Si       0.59302    0.08956    0.44869    1.000
    N3074    N        0.51831    0.09621    0.48027    1.000
    Si3075   Si       0.54693    0.12657    0.49098    1.000
    N3076    N        0.59756    0.06901    0.48756    1.000
    N3077    N        0.69002    0.10853    0.39694    1.000
    N3078    N        0.70239    0.08519    0.46072    1.000
    Si3079   Si       0.65292    0.08579    0.40160    1.000
    N3080    N        0.63211    0.10509    0.43552    1.000
    Si3081   Si       0.72245    0.09298    0.42183    1.000
    N3082    N        0.51914    0.10737    0.59377    1.000
    N3083    N        0.56044    0.11300    0.52967    1.000
    Si3084   Si       0.58429    0.07580    0.52817    1.000
    Si3085   Si       0.52256    0.07231    0.61807    1.000
    N3086    N        0.48675    0.07353    0.53380    1.000
    N3087    N        0.58861    0.12822    0.59420    1.000
    Si3088   Si       0.55109    0.12595    0.57049    1.000
    Si3089   Si       0.61761    0.09673    0.59198    1.000
    N3090    N        0.68851    0.08426    0.54734    1.000
    N3091    N        0.72293    0.10968    0.59701    1.000
    Si3092   Si       0.68988    0.12054    0.57348    1.000
    N3093    N        0.65393    0.12005    0.59844    1.000
    N3094    N        0.61882    0.07502    0.55489    1.000
    N3095    N        0.49475    0.07691    0.65127    1.000
    Si3096   Si       0.59745    0.09248    0.65932    1.000
    N3097    N        0.59342    0.07479    0.70127    1.000
    Si3098   Si       0.52869    0.07860    0.67900    1.000
    N3099    N        0.55719    0.07704    0.64638    1.000
    Si3100   Si       0.60469    0.09659    0.73985    1.000
    N3101    N        0.52488    0.11652    0.70182    1.000
    N3102    N        0.64449    0.10776    0.66536    1.000
    N3103    N        0.64728    0.10265    0.74114    1.000
    Si3104   Si       0.66461    0.11584    0.70434    1.000
    N3105    N        0.69533    0.08750    0.69641    1.000
    Si3106   Si       0.50239    0.11753    0.85334    1.000
    N3107    N        0.53515    0.08771    0.85608    1.000
    N3108    N        0.69942    0.07968    0.79236    1.000
    N3109    N        0.68237    0.08536    0.86597    1.000
    N3110    N        0.64354    0.09959    0.81283    1.000
    Si3111   Si       0.66914    0.11027    0.77807    1.000
    Si3112   Si       0.69250    0.12770    0.86823    1.000
    Si3113   Si       0.57399    0.09419    0.87749    1.000
    N3114    N        0.60102    0.09057    0.98168    1.000
    Si3115   Si       0.58360    0.11589    0.95099    1.000
    N3116    N        0.56768    0.08908    0.92081    1.000
    Si3117   Si       0.73532    0.11535    0.93177    1.000
    Si3118   Si       0.65596    0.12132    0.93459    1.000
    Si3119   Si       0.68560    0.08944    0.99073    1.000
    N3120    N        0.64970    0.07759    0.92599    1.000
    N3121    N        0.71762    0.08488    0.96083    1.000
    N3122    N        0.69419    0.12733    0.91314    1.000
    N3123    N        0.60369    0.15721    0.02809    1.000
    Si3124   Si       0.56404    0.14478    0.01756    1.000
    Si3125   Si       0.51043    0.15894    0.06920    1.000
    N3126    N        0.53247    0.17060    0.03556    1.000
    N3127    N        0.59551    0.13635    0.09640    1.000
    N3128    N        0.51354    0.18626    0.10398    1.000
    N3129    N        0.66398    0.14443    0.05843    1.000
    N3130    N        0.70566    0.17214    0.01077    1.000
    Si3131   Si       0.62179    0.13269    0.06110    1.000
    Si3132   Si       0.67406    0.18471    0.03908    1.000
    Si3133   Si       0.60184    0.16867    0.12288    1.000
    N3134    N        0.52029    0.15863    0.16452    1.000
    Si3135   Si       0.50457    0.15398    0.20898    1.000
    N3136    N        0.54051    0.14122    0.23250    1.000
    N3137    N        0.59009    0.15268    0.16248    1.000
    Si3138   Si       0.49669    0.19003    0.14328    1.000
    Si3139   Si       0.55831    0.18279    0.16847    1.000
    N3140    N        0.68143    0.16668    0.19584    1.000
    Si3141   Si       0.65719    0.13079    0.21165    1.000
    N3142    N        0.71023    0.16648    0.13149    1.000
    Si3143   Si       0.72130    0.16231    0.17260    1.000
    Si3144   Si       0.54498    0.13993    0.35803    1.000
    Si3145   Si       0.58936    0.17516    0.31380    1.000
    N3146    N        0.54865    0.17571    0.33292    1.000
    N3147    N        0.60612    0.13581    0.31380    1.000
    N3148    N        0.59351    0.18393    0.27153    1.000
    Si3149   Si       0.55813    0.17943    0.24772    1.000
    N3150    N        0.65015    0.15284    0.35871    1.000
    Si3151   Si       0.68865    0.13487    0.36220    1.000
    N3152    N        0.64588    0.14699    0.25091    1.000
    N3153    N        0.71605    0.16621    0.37091    1.000
    Si3154   Si       0.63782    0.18527    0.26741    1.000
    N3155    N        0.50393    0.13696    0.37244    1.000
    N3156    N        0.49640    0.14825    0.43867    1.000
    N3157    N        0.57909    0.14489    0.38301    1.000
    Si3158   Si       0.58189    0.15966    0.42410    1.000
    Si3159   Si       0.51990    0.18033    0.45602    1.000
    N3160    N        0.57500    0.12970    0.45492    1.000
    N3161    N        0.62254    0.17489    0.43208    1.000
    N3162    N        0.65259    0.15567    0.49197    1.000
    N3163    N        0.68632    0.16099    0.43751    1.000
    Si3164   Si       0.64666    0.14440    0.44999    1.000
    Si3165   Si       0.72275    0.16335    0.41547    1.000
    N3166    N        0.72703    0.17655    0.48599    1.000
    Si3167   Si       0.68351    0.18610    0.47900    1.000
    N3168    N        0.54008    0.16694    0.56554    1.000
    Si3169   Si       0.60869    0.16744    0.59747    1.000
    Si3170   Si       0.53154    0.18261    0.60552    1.000
    N3171    N        0.52981    0.16590    0.49541    1.000
    Si3172   Si       0.65690    0.17143    0.53345    1.000
    N3173    N        0.69260    0.15998    0.55338    1.000
    Si3174   Si       0.72558    0.18652    0.56786    1.000
    N3175    N        0.54901    0.18337    0.68415    1.000
    N3176    N        0.49935    0.16119    0.62351    1.000
    N3177    N        0.58393    0.13369    0.66964    1.000
    N3178    N        0.58230    0.13378    0.74053    1.000
    Si3179   Si       0.58738    0.17535    0.66002    1.000
    Si3180   Si       0.55914    0.14390    0.70430    1.000
    Si3181   Si       0.65866    0.13926    0.63753    1.000
    N3182    N        0.69926    0.14583    0.65199    1.000
    N3183    N        0.67446    0.15636    0.71437    1.000
    N3184    N        0.63359    0.17363    0.63357    1.000
    Si3185   Si       0.70245    0.17268    0.68537    1.000
    Si3186   Si       0.73421    0.13858    0.62810    1.000
    Si3187   Si       0.50951    0.16412    0.77927    1.000
    Si3188   Si       0.58568    0.16530    0.76864    1.000
    N3189    N        0.52186    0.15868    0.85493    1.000
    N3190    N        0.54932    0.16194    0.79617    1.000
    Si3191   Si       0.56250    0.16428    0.83836    1.000
    N3192    N        0.58897    0.13256    0.85737    1.000
    N3193    N        0.49233    0.12959    0.76034    1.000
    Si3194   Si       0.48888    0.18745    0.85035    1.000
    N3195    N        0.61535    0.16066    0.79952    1.000
    N3196    N        0.68720    0.14960    0.77967    1.000
    Si3197   Si       0.71490    0.16355    0.81070    1.000
    N3198    N        0.66068    0.15483    0.85423    1.000
    N3199    N        0.72568    0.13789    0.84274    1.000
    Si3200   Si       0.62653    0.13588    0.83237    1.000
    Si3201   Si       0.67969    0.18083    0.74957    1.000
    Si3202   Si       0.53206    0.16571    0.94718    1.000
    N3203    N        0.56159    0.14481    0.97453    1.000
    Si3204   Si       0.60312    0.17947    0.92599    1.000
    N3205    N        0.50977    0.13027    0.93470    1.000
    N3206    N        0.56135    0.18187    0.92020    1.000
    Si3207   Si       0.69767    0.16137    0.96787    1.000
    N3208    N        0.66994    0.12759    0.97564    1.000
    N3209    N        0.61622    0.13710    0.93158    1.000
    Si3210   Si       0.52799    0.20965    0.01323    1.000
    N3211    N        0.56931    0.22035    0.01002    1.000
    Si3212   Si       0.60472    0.19608    0.00697    1.000
    Si3213   Si       0.53988    0.21955    0.11297    1.000
    N3214    N        0.50506    0.23962    0.03349    1.000
    N3215    N        0.69488    0.20415    0.07055    1.000
    N3216    N        0.64574    0.20868    0.01681    1.000
    Si3217   Si       0.68445    0.19566    0.11259    1.000
    Si3218   Si       0.73301    0.22741    0.07402    1.000
    N3219    N        0.63950    0.18948    0.11640    1.000
    N3220    N        0.49309    0.19518    0.21336    1.000
    N3221    N        0.57555    0.20218    0.12941    1.000
    N3222    N        0.52070    0.22835    0.15037    1.000
    N3223    N        0.56954    0.19779    0.20828    1.000
    Si3224   Si       0.60384    0.22555    0.21257    1.000
    N3225    N        0.68016    0.23272    0.13540    1.000
    N3226    N        0.63086    0.21859    0.17787    1.000
    N3227    N        0.70357    0.23563    0.19924    1.000
    Si3228   Si       0.66748    0.20921    0.20248    1.000
    N3229    N        0.64306    0.21910    0.23867    1.000
    Si3230   Si       0.63311    0.22975    0.13682    1.000
    Si3231   Si       0.73253    0.24282    0.23174    1.000
    Si3232   Si       0.52740    0.20786    0.31316    1.000
    N3233    N        0.61005    0.20667    0.33497    1.000
    N3234    N        0.52578    0.19848    0.27098    1.000
    N3235    N        0.48828    0.20727    0.33400    1.000
    N3236    N        0.54885    0.24864    0.31432    1.000
    Si3237   Si       0.59195    0.24413    0.32024    1.000
    Si3238   Si       0.69965    0.22247    0.29370    1.000
    N3239    N        0.72756    0.21018    0.26160    1.000
    N3240    N        0.66541    0.19678    0.30099    1.000
    N3241    N        0.72569    0.22749    0.32890    1.000
    Si3242   Si       0.64986    0.19510    0.34603    1.000
    Si3243   Si       0.73899    0.18725    0.34052    1.000
    N3244    N        0.49457    0.21523    0.46316    1.000
    N3245    N        0.60241    0.24083    0.42569    1.000
    N3246    N        0.53174    0.23754    0.38640    1.000
    Si3247   Si       0.55941    0.23511    0.42155    1.000
    N3248    N        0.55309    0.19287    0.43241    1.000
    Si3249   Si       0.49083    0.22721    0.37544    1.000
    N3250    N        0.65337    0.22119    0.38141    1.000
    Si3251   Si       0.63922    0.21275    0.42171    1.000
    N3252    N        0.67022    0.22463    0.45140    1.000
    N3253    N        0.73231    0.24414    0.47479    1.000
    N3254    N        0.52298    0.22611    0.60496    1.000
    N3255    N        0.53937    0.22894    0.51533    1.000
    Si3256   Si       0.56485    0.23314    0.61503    1.000
    Si3257   Si       0.52494    0.18998    0.53092    1.000
    N3258    N        0.58253    0.24074    0.57619    1.000
    N3259    N        0.57359    0.18962    0.62117    1.000
    Si3260   Si       0.62202    0.22984    0.55973    1.000
    N3261    N        0.71931    0.22935    0.56062    1.000
    N3262    N        0.67181    0.20840    0.51693    1.000
    Si3263   Si       0.68562    0.24382    0.53909    1.000
    N3264    N        0.62748    0.18583    0.56367    1.000
    N3265    N        0.49395    0.22835    0.69311    1.000
    Si3266   Si       0.53843    0.22688    0.68408    1.000
    Si3267   Si       0.61333    0.22127    0.72363    1.000
    N3268    N        0.61192    0.19972    0.68620    1.000
    N3269    N        0.51409    0.19187    0.74843    1.000
    N3270    N        0.68166    0.20993    0.67394    1.000
    Si3271   Si       0.64211    0.20977    0.65762    1.000
    N3272    N        0.65122    0.21450    0.74636    1.000
    N3273    N        0.57379    0.20577    0.84726    1.000
    N3274    N        0.51089    0.22542    0.85711    1.000
    Si3275   Si       0.54562    0.23738    0.83217    1.000
    Si3276   Si       0.54496    0.22299    0.75501    1.000
    N3277    N        0.58488    0.20514    0.75241    1.000
    Si3278   Si       0.60558    0.22883    0.86864    1.000
    N3279    N        0.53277    0.24341    0.79083    1.000
    N3280    N        0.71339    0.21029    0.75022    1.000
    N3281    N        0.63867    0.23155    0.83963    1.000
    N3282    N        0.70031    0.20363    0.82275    1.000
    Si3283   Si       0.66853    0.20119    0.85372    1.000
    Si3284   Si       0.68359    0.24446    0.74937    1.000
    N3285    N        0.51373    0.19616    0.97484    1.000
    N3286    N        0.61141    0.19840    0.96548    1.000
    N3287    N        0.68888    0.21996    0.88812    1.000
    Si3288   Si       0.66084    0.22696    0.98071    1.000
    Si3289   Si       0.72704    0.24159    0.89199    1.000
    Si3290   Si       0.66025    0.21661    0.91916    1.000
    N3291    N        0.68065    0.19691    0.95140    1.000
    N3292    N        0.62526    0.20271    0.89653    1.000
    N3293    N        0.55986    0.28361    0.03253    1.000
    Si3294   Si       0.52448    0.27005    0.05583    1.000
    N3295    N        0.54454    0.25702    0.09252    1.000
    Si3296   Si       0.57474    0.28005    0.11511    1.000
    Si3297   Si       0.71195    0.27927    0.02343    1.000
    N3298    N        0.72338    0.26849    0.06578    1.000
    Si3299   Si       0.71515    0.29678    0.09732    1.000
    N3300    N        0.67321    0.30838    0.09638    1.000
    N3301    N        0.55334    0.29072    0.15166    1.000
    N3302    N        0.51944    0.28067    0.20688    1.000
    Si3303   Si       0.51709    0.26853    0.16386    1.000
    N3304    N        0.58669    0.26222    0.22426    1.000
    Si3305   Si       0.55419    0.28803    0.23152    1.000
    N3306    N        0.61587    0.26780    0.12592    1.000
    N3307    N        0.73411    0.28906    0.23570    1.000
    N3308    N        0.66392    0.29245    0.16774    1.000
    Si3309   Si       0.64300    0.30378    0.13030    1.000
    Si3310   Si       0.69759    0.26252    0.16157    1.000
    N3311    N        0.72757    0.28078    0.13554    1.000
    N3312    N        0.65175    0.29254    0.23483    1.000
    Si3313   Si       0.69328    0.30519    0.24621    1.000
    Si3314   Si       0.52674    0.28739    0.30955    1.000
    N3315    N        0.60596    0.27117    0.35042    1.000
    N3316    N        0.54265    0.30289    0.27168    1.000
    N3317    N        0.61455    0.25607    0.28619    1.000
    N3318    N        0.67571    0.27532    0.34194    1.000
    N3319    N        0.68896    0.26102    0.27730    1.000
    Si3320   Si       0.69680    0.29264    0.30839    1.000
    Si3321   Si       0.64828    0.25703    0.26026    1.000
    Si3322   Si       0.64554    0.26218    0.36923    1.000
    N3323    N        0.74070    0.29682    0.31707    1.000
    N3324    N        0.54303    0.26477    0.45108    1.000
    Si3325   Si       0.61292    0.28279    0.43027    1.000
    Si3326   Si       0.54701    0.30911    0.43838    1.000
    N3327    N        0.58131    0.30235    0.40746    1.000
    Si3328   Si       0.51924    0.24592    0.48094    1.000
    N3329    N        0.64753    0.28392    0.40412    1.000
    N3330    N        0.69978    0.29948    0.44677    1.000
    Si3331   Si       0.73704    0.31281    0.40593    1.000
    N3332    N        0.62657    0.29663    0.46883    1.000
    Si3333   Si       0.69219    0.25897    0.46768    1.000
    N3334    N        0.55894    0.29355    0.52707    1.000
    Si3335   Si       0.56993    0.25363    0.53415    1.000
    N3336    N        0.52763    0.29259    0.60892    1.000
    Si3337   Si       0.49892    0.26023    0.60560    1.000
    N3338    N        0.49277    0.27303    0.50078    1.000
    N3339    N        0.61138    0.24866    0.52116    1.000
    Si3340   Si       0.65318    0.26599    0.61400    1.000
    N3341    N        0.67722    0.27227    0.50707    1.000
    Si3342   Si       0.63532    0.28412    0.50865    1.000
    N3343    N        0.65747    0.25094    0.57357    1.000
    Si3344   Si       0.53651    0.28953    0.71899    1.000
    Si3345   Si       0.60121    0.26731    0.66756    1.000
    Si3346   Si       0.54692    0.29284    0.64797    1.000
    N3347    N        0.56224    0.25042    0.65506    1.000
    Si3348   Si       0.61158    0.29316    0.73974    1.000
    N3349    N        0.54824    0.24775    0.72096    1.000
    N3350    N        0.61598    0.26222    0.70956    1.000
    N3351    N        0.62565    0.24490    0.63919    1.000
    N3352    N        0.68716    0.27277    0.64108    1.000
    N3353    N        0.69010    0.27050    0.71592    1.000
    Si3354   Si       0.69835    0.24942    0.67821    1.000
    N3355    N        0.56847    0.27329    0.83963    1.000
    Si3356   Si       0.50069    0.27433    0.78772    1.000
    Si3357   Si       0.59445    0.29955    0.81490    1.000
    N3358    N        0.61198    0.27429    0.78093    1.000
    N3359    N        0.50293    0.28766    0.74596    1.000
    N3360    N        0.68406    0.26122    0.79012    1.000
    Si3361   Si       0.64507    0.26365    0.80959    1.000
    N3362    N        0.72442    0.26594    0.85483    1.000
    N3363    N        0.63490    0.29976    0.83520    1.000
    Si3364   Si       0.71241    0.24494    0.81826    1.000
    Si3365   Si       0.51812    0.29139    0.94264    1.000
    N3366    N        0.59045    0.28127    0.96916    1.000
    Si3367   Si       0.56591    0.28867    0.87977    1.000
    N3368    N        0.59801    0.26340    0.89645    1.000
    N3369    N        0.52979    0.27820    0.90204    1.000
    N3370    N        0.52701    0.25922    0.96942    1.000
    Si3371   Si       0.49834    0.25166    0.88774    1.000
    Si3372   Si       0.56364    0.26277    0.99505    1.000
    Si3373   Si       0.61580    0.27664    0.93332    1.000
    Si3374   Si       0.72778    0.25784    0.96647    1.000
    N3375    N        0.73144    0.29985    0.98532    1.000
    N3376    N        0.72043    0.26999    0.92492    1.000
    N3377    N        0.64737    0.25070    0.94430    1.000
    N3378    N        0.69652    0.24930    0.99495    1.000
    N3379    N        0.58196    0.31665    0.09359    1.000
    Si3380   Si       0.58189    0.31750    0.04877    1.000
    Si3381   Si       0.51699    0.34786    0.06546    1.000
    N3382    N        0.55359    0.34851    0.04133    1.000
    N3383    N        0.51403    0.35002    0.10910    1.000
    Si3384   Si       0.58668    0.35261    0.11686    1.000
    N3385    N        0.50144    0.30542    0.06093    1.000
    N3386    N        0.62283    0.33198    0.04154    1.000
    N3387    N        0.69142    0.31541    0.02999    1.000
    Si3388   Si       0.66309    0.33221    0.05873    1.000
    Si3389   Si       0.63137    0.35559    0.00470    1.000
    N3390    N        0.50361    0.34439    0.17697    1.000
    N3391    N        0.56294    0.33070    0.21568    1.000
    Si3392   Si       0.54281    0.32298    0.17652    1.000
    N3393    N        0.56551    0.35757    0.15521    1.000
    Si3394   Si       0.58735    0.36074    0.19518    1.000
    Si3395   Si       0.71233    0.35921    0.18662    1.000
    N3396    N        0.62924    0.35277    0.19421    1.000
    Si3397   Si       0.65379    0.31837    0.19945    1.000
    N3398    N        0.62769    0.34459    0.13099    1.000
    N3399    N        0.69022    0.33678    0.21529    1.000
    N3400    N        0.54245    0.30940    0.34321    1.000
    Si3401   Si       0.54668    0.34510    0.25464    1.000
    Si3402   Si       0.51869    0.34602    0.35626    1.000
    N3403    N        0.59812    0.34583    0.36428    1.000
    Si3404   Si       0.58119    0.30434    0.36432    1.000
    N3405    N        0.50574    0.35851    0.24864    1.000
    Si3406   Si       0.70314    0.35899    0.35893    1.000
    N3407    N        0.68794    0.32659    0.28254    1.000
    N3408    N        0.66642    0.35582    0.33968    1.000
    Si3409   Si       0.66690    0.36151    0.29519    1.000
    Si3410   Si       0.59764    0.34917    0.41066    1.000
    N3411    N        0.58156    0.34215    0.45384    1.000
    N3412    N        0.52614    0.32516    0.47590    1.000
    N3413    N        0.51599    0.31344    0.40646    1.000
    Si3414   Si       0.55061    0.36101    0.47873    1.000
    N3415    N        0.70134    0.33133    0.39071    1.000
    N3416    N        0.73638    0.36228    0.46121    1.000
    Si3417   Si       0.70986    0.33125    0.47579    1.000
    Si3418   Si       0.67053    0.31719    0.41927    1.000
    Si3419   Si       0.62806    0.34374    0.46760    1.000
    N3420    N        0.67126    0.34747    0.48861    1.000
    N3421    N        0.63949    0.34895    0.42588    1.000
    N3422    N        0.51265    0.33622    0.54632    1.000
    Si3423   Si       0.58612    0.32792    0.53884    1.000
    N3424    N        0.57790    0.32727    0.58315    1.000
    Si3425   Si       0.53402    0.33024    0.58608    1.000
    Si3426   Si       0.60518    0.32930    0.61752    1.000
    Si3427   Si       0.51920    0.30700    0.51382    1.000
    N3428    N        0.62948    0.32234    0.53248    1.000
    N3429    N        0.71219    0.33407    0.60965    1.000
    N3430    N        0.64486    0.31109    0.61473    1.000
    Si3431   Si       0.66033    0.35654    0.53059    1.000
    Si3432   Si       0.56441    0.35402    0.73719    1.000
    Si3433   Si       0.52141    0.35271    0.69291    1.000
    N3434    N        0.52700    0.31223    0.68199    1.000
    N3435    N        0.51679    0.35328    0.73838    1.000
    N3436    N        0.57041    0.31101    0.73485    1.000
    N3437    N        0.58920    0.30674    0.65151    1.000
    Si3438   Si       0.68067    0.31318    0.71692    1.000
    Si3439   Si       0.68257    0.31648    0.63652    1.000
    N3440    N        0.68138    0.33363    0.67712    1.000
    N3441    N        0.64299    0.32305    0.73704    1.000
    N3442    N        0.71086    0.34357    0.73249    1.000
    N3443    N        0.58043    0.34032    0.80853    1.000
    N3444    N        0.50064    0.31549    0.80236    1.000
    N3445    N        0.69751    0.32956    0.83788    1.000
    Si3446   Si       0.65832    0.32369    0.85882    1.000
    Si3447   Si       0.73215    0.30852    0.85079    1.000
    N3448    N        0.63504    0.35843    0.87018    1.000
    N3449    N        0.56215    0.33329    0.87934    1.000
    Si3450   Si       0.58393    0.32390    0.95862    1.000
    N3451    N        0.53872    0.32659    0.95487    1.000
    Si3452   Si       0.59836    0.35080    0.89476    1.000
    N3453    N        0.61189    0.32048    0.92603    1.000
    N3454    N        0.59456    0.36060    0.98144    1.000
    Si3455   Si       0.65480    0.33709    0.93460    1.000
    N3456    N        0.70590    0.34689    0.94264    1.000
    N3457    N        0.65481    0.33014    0.97765    1.000
    Si3458   Si       0.71357    0.31328    0.91659    1.000
    Si3459   Si       0.69928    0.33385    0.98863    1.000
    N3460    N        0.67313    0.31458    0.89895    1.000
    N3461    N        0.56746    0.38876    0.10107    1.000
    Si3462   Si       0.56333    0.37623    0.00930    1.000
    N3463    N        0.58060    0.40997    0.03009    1.000
    Si3464   Si       0.50101    0.41154    0.01666    1.000
    N3465    N        0.49813    0.38399    0.05198    1.000
    Si3466   Si       0.58245    0.41673    0.07267    1.000
    N3467    N        0.67355    0.37172    0.06621    1.000
    Si3468   Si       0.66847    0.41348    0.07243    1.000
    Si3469   Si       0.68538    0.41141    0.00235    1.000
    N3470    N        0.71235    0.37544    0.99968    1.000
    N3471    N        0.64259    0.39762    0.00322    1.000
    N3472    N        0.62503    0.42453    0.08063    1.000
    Si3473   Si       0.53520    0.38069    0.13138    1.000
    N3474    N        0.57954    0.39996    0.20232    1.000
    N3475    N        0.50259    0.40618    0.14460    1.000
    Si3476   Si       0.55610    0.41607    0.23395    1.000
    Si3477   Si       0.70663    0.41767    0.14323    1.000
    Si3478   Si       0.64377    0.37592    0.15788    1.000
    N3479    N        0.62702    0.41479    0.15167    1.000
    N3480    N        0.68658    0.38381    0.16065    1.000
    Si3481   Si       0.54229    0.40033    0.33237    1.000
    Si3482   Si       0.59876    0.40432    0.28322    1.000
    N3483    N        0.56331    0.38448    0.26273    1.000
    N3484    N        0.51917    0.36904    0.31499    1.000
    N3485    N        0.58358    0.41632    0.32360    1.000
    Si3486   Si       0.48859    0.37704    0.28618    1.000
    N3487    N        0.73465    0.36521    0.32640    1.000
    N3488    N        0.62314    0.37053    0.29725    1.000
    Si3489   Si       0.62517    0.37310    0.34164    1.000
    N3490    N        0.68727    0.39840    0.28639    1.000
    Si3491   Si       0.72699    0.40139    0.30234    1.000
    N3492    N        0.63795    0.40998    0.36000    1.000
    N3493    N        0.53072    0.38164    0.37572    1.000
    Si3494   Si       0.54334    0.40455    0.41080    1.000
    N3495    N        0.58672    0.39298    0.41294    1.000
    N3496    N        0.52830    0.38735    0.44903    1.000
    Si3497   Si       0.61332    0.41009    0.44313    1.000
    Si3498   Si       0.66858    0.41473    0.39193    1.000
    N3499    N        0.70989    0.41818    0.49327    1.000
    N3500    N        0.71042    0.39747    0.37922    1.000
    N3501    N        0.62026    0.38739    0.47939    1.000
    Si3502   Si       0.55602    0.40227    0.53263    1.000
    N3503    N        0.51818    0.40105    0.51676    1.000
    Si3504   Si       0.56594    0.39251    0.61486    1.000
    N3505    N        0.60632    0.37282    0.61531    1.000
    N3506    N        0.56139    0.41006    0.57505    1.000
    N3507    N        0.53118    0.36548    0.61451    1.000
    Si3508   Si       0.49091    0.37030    0.52865    1.000
    N3509    N        0.57206    0.36306    0.51980    1.000
    Si3510   Si       0.70186    0.37303    0.59370    1.000
    Si3511   Si       0.63338    0.39804    0.59312    1.000
    N3512    N        0.66949    0.39258    0.61441    1.000
    N3513    N        0.63460    0.38943    0.54880    1.000
    N3514    N        0.69870    0.37301    0.54989    1.000
    Si3515   Si       0.70983    0.41454    0.53767    1.000
    Si3516   Si       0.62167    0.41183    0.51429    1.000
    N3517    N        0.73550    0.39584    0.60504    1.000
    N3518    N        0.49682    0.37941    0.67245    1.000
    N3519    N        0.55986    0.37378    0.69895    1.000
    Si3520   Si       0.56824    0.41614    0.68920    1.000
    N3521    N        0.49236    0.41881    0.73162    1.000
    Si3522   Si       0.49198    0.37925    0.62886    1.000
    N3523    N        0.57524    0.42026    0.64735    1.000
    N3524    N        0.65479    0.39138    0.71653    1.000
    Si3525   Si       0.69120    0.37113    0.70152    1.000
    N3526    N        0.70872    0.39818    0.67234    1.000
    Si3527   Si       0.68068    0.42027    0.64552    1.000
    N3528    N        0.53776    0.39533    0.79070    1.000
    N3529    N        0.54578    0.40090    0.86009    1.000
    Si3530   Si       0.57971    0.38186    0.79490    1.000
    Si3531   Si       0.50514    0.39009    0.76233    1.000
    N3532    N        0.60757    0.41132    0.81321    1.000
    N3533    N        0.59781    0.37220    0.75582    1.000
    Si3534   Si       0.53296    0.42268    0.82406    1.000
    N3535    N        0.73477    0.37302    0.79188    1.000
    N3536    N        0.69150    0.39530    0.83964    1.000
    N3537    N        0.66214    0.37559    0.78660    1.000
    Si3538   Si       0.65433    0.41112    0.82133    1.000
    Si3539   Si       0.69756    0.36383    0.80998    1.000
    Si3540   Si       0.64125    0.36734    0.74775    1.000
    Si3541   Si       0.71585    0.42063    0.86570    1.000
    Si3542   Si       0.61066    0.39299    0.95136    1.000
    N3543    N        0.52667    0.38768    0.99003    1.000
    N3544    N        0.51887    0.38716    0.91507    1.000
    N3545    N        0.58322    0.38391    0.91757    1.000
    Si3546   Si       0.55441    0.41593    0.90150    1.000
    Si3547   Si       0.51877    0.36503    0.95283    1.000
    Si3548   Si       0.52702    0.36378    0.87660    1.000
    Si3549   Si       0.71425    0.39008    0.94248    1.000
    Si3550   Si       0.65874    0.39249    0.88816    1.000
    N3551    N        0.69711    0.41141    0.90348    1.000
    N3552    N        0.64591    0.37900    0.92859    1.000
    N3553    N        0.56305    0.45467    0.08275    1.000
    N3554    N        0.50655    0.45288    0.02662    1.000
    Si3555   Si       0.52785    0.47144    0.06245    1.000
    N3556    N        0.49752    0.47244    0.09394    1.000
    Si3557   Si       0.61284    0.43331    0.00744    1.000
    N3558    N        0.68082    0.43591    0.03654    1.000
    N3559    N        0.62794    0.47432    0.01440    1.000
    N3560    N        0.68183    0.42859    0.10958    1.000
    Si3561   Si       0.63836    0.44019    0.11763    1.000
    Si3562   Si       0.66689    0.47665    0.03854    1.000
    N3563    N        0.73035    0.48167    0.08132    1.000
    Si3564   Si       0.57104    0.47031    0.12131    1.000
    N3565    N        0.52024    0.43144    0.21357    1.000
    N3566    N        0.56034    0.44271    0.15178    1.000
    Si3567   Si       0.52033    0.43701    0.17102    1.000
    Si3568   Si       0.59432    0.43042    0.17652    1.000
    N3569    N        0.49741    0.47353    0.16331    1.000
    Si3570   Si       0.60858    0.46207    0.24342    1.000
    N3571    N        0.61182    0.46122    0.20075    1.000
    N3572    N        0.61358    0.47850    0.13227    1.000
    N3573    N        0.71936    0.45693    0.15921    1.000
    Si3574   Si       0.73731    0.42153    0.22605    1.000
    Si3575   Si       0.70179    0.47479    0.19419    1.000
    N3576    N        0.69940    0.43995    0.22483    1.000
    N3577    N        0.52210    0.43771    0.32912    1.000
    Si3578   Si       0.54243    0.46932    0.35136    1.000
    N3579    N        0.56847    0.45082    0.25905    1.000
    Si3580   Si       0.61028    0.44283    0.34554    1.000
    N3581    N        0.58367    0.47159    0.37181    1.000
    Si3582   Si       0.49057    0.45088    0.29873    1.000
    N3583    N        0.73851    0.44023    0.32440    1.000
    N3584    N        0.62640    0.47947    0.32593    1.000
    N3585    N        0.68366    0.46740    0.28495    1.000
    Si3586   Si       0.67562    0.43154    0.26195    1.000
    Si3587   Si       0.72228    0.47596    0.30168    1.000
    Si3588   Si       0.72261    0.43880    0.36495    1.000
    N3589    N        0.62998    0.42927    0.26234    1.000
    N3590    N        0.52613    0.46714    0.48559    1.000
    Si3591   Si       0.57116    0.46167    0.48728    1.000
    N3592    N        0.53059    0.44509    0.40173    1.000
    N3593    N        0.59189    0.44868    0.45007    1.000
    Si3594   Si       0.49773    0.47356    0.40081    1.000
    Si3595   Si       0.58668    0.47620    0.41605    1.000
    Si3596   Si       0.67582    0.43426    0.46945    1.000
    N3597    N        0.68608    0.47423    0.45214    1.000
    N3598    N        0.68507    0.45424    0.38138    1.000
    N3599    N        0.65305    0.42234    0.43226    1.000
    Si3600   Si       0.58566    0.44705    0.56642    1.000
    N3601    N        0.58454    0.43405    0.52130    1.000
    Si3602   Si       0.49644    0.43819    0.50213    1.000
    N3603    N        0.61579    0.44074    0.59824    1.000
    N3604    N        0.68974    0.44624    0.56158    1.000
    Si3605   Si       0.69897    0.46961    0.59724    1.000
    N3606    N        0.65181    0.44255    0.50505    1.000
    Si3607   Si       0.66596    0.47127    0.53272    1.000
    N3608    N        0.51894    0.47368    0.62251    1.000
    N3609    N        0.53516    0.44769    0.68959    1.000
    Si3610   Si       0.51218    0.45734    0.72586    1.000
    N3611    N        0.59872    0.43880    0.71286    1.000
    Si3612   Si       0.58505    0.47222    0.73658    1.000
    Si3613   Si       0.60924    0.44807    0.64139    1.000
    Si3614   Si       0.54216    0.47901    0.66108    1.000
    N3615    N        0.64504    0.43506    0.66308    1.000
    N3616    N        0.71087    0.44932    0.63545    1.000
    N3617    N        0.73125    0.46367    0.71264    1.000
    Si3618   Si       0.64037    0.43019    0.70699    1.000
    Si3619   Si       0.73098    0.47108    0.66692    1.000
    N3620    N        0.66094    0.46244    0.73097    1.000
    N3621    N        0.55374    0.45861    0.81906    1.000
    Si3622   Si       0.59596    0.45453    0.81538    1.000
    N3623    N        0.60705    0.46354    0.77366    1.000
    N3624    N        0.54368    0.47016    0.75222    1.000
    N3625    N        0.49065    0.43503    0.83750    1.000
    N3626    N        0.61130    0.48173    0.84443    1.000
    N3627    N        0.71277    0.46246    0.85578    1.000
    Si3628   Si       0.70839    0.46517    0.81229    1.000
    N3629    N        0.66907    0.45122    0.80277    1.000
    Si3630   Si       0.64794    0.47207    0.77019    1.000
    N3631    N        0.74385    0.44346    0.79771    1.000
    N3632    N        0.64320    0.42528    0.86407    1.000
    N3633    N        0.58878    0.44753    0.89923    1.000
    N3634    N        0.59773    0.43071    0.96604    1.000
    N3635    N        0.53584    0.44856    0.92745    1.000
    Si3636   Si       0.57639    0.45928    0.94123    1.000
    Si3637   Si       0.49987    0.46744    0.94135    1.000
    N3638    N        0.69908    0.42623    0.96379    1.000
    Si3639   Si       0.69085    0.44706    0.92628    1.000
    N3640    N        0.72311    0.47513    0.92087    1.000
    Si3641   Si       0.62561    0.46017    0.88020    1.000
    N3642    N        0.65754    0.46912    0.90901    1.000
    N3643    N        0.52780    0.51193    0.04257    1.000
    N3644    N        0.59613    0.52412    0.08207    1.000
    Si3645   Si       0.49902    0.49621    0.01229    1.000
    Si3646   Si       0.56165    0.54174    0.10429    1.000
    Si3647   Si       0.62972    0.51001    0.10659    1.000
    N3648    N        0.69612    0.50844    0.02965    1.000
    Si3649   Si       0.69639    0.51800    0.07660    1.000
    Si3650   Si       0.72879    0.52497    0.00636    1.000
    N3651    N        0.65842    0.49345    0.07884    1.000
    N3652    N        0.54823    0.50788    0.12779    1.000
    Si3653   Si       0.50582    0.49628    0.12923    1.000
    Si3654   Si       0.60411    0.53191    0.23460    1.000
    N3655    N        0.60408    0.52701    0.19021    1.000
    N3656    N        0.49618    0.52050    0.21885    1.000
    Si3657   Si       0.67736    0.53322    0.15605    1.000
    N3658    N        0.72600    0.50858    0.21299    1.000
    Si3659   Si       0.73040    0.48325    0.12445    1.000
    N3660    N        0.70123    0.52022    0.12208    1.000
    N3661    N        0.66795    0.49658    0.17779    1.000
    N3662    N        0.63954    0.54120    0.13743    1.000
    Si3663   Si       0.62396    0.49191    0.17368    1.000
    Si3664   Si       0.59361    0.50408    0.33998    1.000
    N3665    N        0.55974    0.49374    0.31602    1.000
    N3666    N        0.51101    0.49644    0.36595    1.000
    Si3667   Si       0.55012    0.48814    0.27462    1.000
    N3668    N        0.50721    0.48318    0.27413    1.000
    N3669    N        0.56431    0.51863    0.24666    1.000
    Si3670   Si       0.65183    0.49491    0.29348    1.000
    N3671    N        0.71555    0.50480    0.33539    1.000
    N3672    N        0.62715    0.49961    0.25533    1.000
    N3673    N        0.66500    0.53480    0.29950    1.000
    N3674    N        0.55959    0.50364    0.43281    1.000
    Si3675   Si       0.57097    0.52689    0.46787    1.000
    Si3676   Si       0.50687    0.50254    0.47052    1.000
    N3677    N        0.53071    0.53793    0.48204    1.000
    N3678    N        0.58446    0.50069    0.50065    1.000
    N3679    N        0.48967    0.50371    0.43000    1.000
    N3680    N        0.69044    0.51705    0.39698    1.000
    N3681    N        0.62744    0.49746    0.41866    1.000
    Si3682   Si       0.69454    0.51108    0.47431    1.000
    Si3683   Si       0.66857    0.48163    0.41252    1.000
    Si3684   Si       0.72692    0.50422    0.37860    1.000
    N3685    N        0.72744    0.53768    0.45798    1.000
    Si3686   Si       0.53048    0.49752    0.58695    1.000
    Si3687   Si       0.59321    0.51078    0.54275    1.000
    N3688    N        0.56407    0.48363    0.56376    1.000
    N3689    N        0.61001    0.52995    0.60347    1.000
    N3690    N        0.49332    0.51110    0.56713    1.000
    Si3691   Si       0.71088    0.52386    0.55218    1.000
    N3692    N        0.72771    0.50185    0.58617    1.000
    N3693    N        0.69324    0.50268    0.51809    1.000
    Si3694   Si       0.64523    0.52011    0.58423    1.000
    N3695    N        0.66768    0.49675    0.61333    1.000
    N3696    N        0.63210    0.49308    0.55078    1.000
    N3697    N        0.59017    0.51355    0.71984    1.000
    N3698    N        0.52375    0.51137    0.68235    1.000
    Si3699   Si       0.60071    0.52732    0.64649    1.000
    Si3700   Si       0.55626    0.53432    0.70325    1.000
    N3701    N        0.58550    0.48535    0.65149    1.000
    Si3702   Si       0.62267    0.53875    0.74363    1.000
    N3703    N        0.70628    0.52585    0.73971    1.000
    N3704    N        0.69555    0.49857    0.67768    1.000
    Si3705   Si       0.69557    0.48927    0.71917    1.000
    Si3706   Si       0.67523    0.52191    0.64695    1.000
    N3707    N        0.51288    0.50328    0.85981    1.000
    N3708    N        0.55397    0.52791    0.79766    1.000
    Si3709   Si       0.53921    0.48864    0.79146    1.000
    N3710    N        0.49559    0.49245    0.79835    1.000
    Si3711   Si       0.61627    0.52389    0.85296    1.000
    N3712    N        0.70984    0.50858    0.80523    1.000
    N3713    N        0.64748    0.51618    0.77119    1.000
    Si3714   Si       0.67291    0.53207    0.80039    1.000
    N3715    N        0.65998    0.53099    0.84227    1.000
    Si3716   Si       0.73581    0.52405    0.77317    1.000
    N3717    N        0.51077    0.49758    0.97237    1.000
    N3718    N        0.58487    0.49977    0.95793    1.000
    Si3719   Si       0.50467    0.52858    0.94310    1.000
    Si3720   Si       0.58146    0.52964    0.92624    1.000
    N3721    N        0.61394    0.52034    0.89718    1.000
    N3722    N        0.53922    0.53596    0.91686    1.000
    N3723    N        0.72503    0.52446    0.96412    1.000
    Si3724   Si       0.71672    0.49667    0.88328    1.000
    N3725    N        0.68968    0.52958    0.90192    1.000
    Si3726   Si       0.65130    0.51067    0.91795    1.000
    Si3727   Si       0.61905    0.50714    0.98732    1.000
    N3728    N        0.64980    0.51816    0.95926    1.000
    N3729    N        0.52914    0.56201    0.08505    1.000
    Si3730   Si       0.52587    0.55620    0.04185    1.000
    N3731    N        0.59912    0.58900    0.06355    1.000
    N3732    N        0.54724    0.56772    0.00248    1.000
    Si3733   Si       0.49583    0.57230    0.11206    1.000
    Si3734   Si       0.61848    0.55126    0.05448    1.000
    N3735    N        0.61231    0.54584    0.01204    1.000
    Si3736   Si       0.69198    0.58532    0.07118    1.000
    N3737    N        0.65942    0.55950    0.06656    1.000
    N3738    N        0.72520    0.55310    0.07594    1.000
    N3739    N        0.54578    0.56981    0.20223    1.000
    Si3740   Si       0.60717    0.56171    0.16116    1.000
    N3741    N        0.57872    0.57182    0.13042    1.000
    Si3742   Si       0.53156    0.54345    0.23262    1.000
    N3743    N        0.61675    0.59668    0.18362    1.000
    N3744    N        0.50248    0.60004    0.14613    1.000
    N3745    N        0.62314    0.56778    0.24744    1.000
    Si3746   Si       0.73660    0.54618    0.11874    1.000
    N3747    N        0.70292    0.56361    0.17527    1.000
    N3748    N        0.69488    0.56511    0.24548    1.000
    Si3749   Si       0.71948    0.55078    0.21465    1.000
    Si3750   Si       0.73223    0.59262    0.17287    1.000
    N3751    N        0.51546    0.56149    0.33969    1.000
    Si3752   Si       0.51583    0.58348    0.30231    1.000
    N3753    N        0.51232    0.55501    0.26956    1.000
    Si3754   Si       0.57595    0.58453    0.33882    1.000
    N3755    N        0.59778    0.54621    0.34635    1.000
    Si3756   Si       0.51784    0.58875    0.37378    1.000
    Si3757   Si       0.63427    0.57186    0.35541    1.000
    Si3758   Si       0.65916    0.56580    0.27076    1.000
    N3759    N        0.67857    0.57284    0.34954    1.000
    Si3760   Si       0.69934    0.54361    0.32378    1.000
    N3761    N        0.73515    0.57023    0.32454    1.000
    N3762    N        0.59631    0.55762    0.45261    1.000
    N3763    N        0.50306    0.57467    0.41093    1.000
    Si3764   Si       0.58409    0.59972    0.45589    1.000
    N3765    N        0.70032    0.58587    0.41895    1.000
    N3766    N        0.71730    0.59059    0.49363    1.000
    Si3767   Si       0.68311    0.55835    0.39195    1.000
    N3768    N        0.66358    0.54158    0.46518    1.000
    N3769    N        0.64082    0.56218    0.39899    1.000
    Si3770   Si       0.69943    0.57386    0.45884    1.000
    Si3771   Si       0.63032    0.53733    0.43564    1.000
    Si3772   Si       0.57949    0.55877    0.59017    1.000
    N3773    N        0.59042    0.55747    0.54759    1.000
    Si3774   Si       0.50201    0.55270    0.57987    1.000
    Si3775   Si       0.49559    0.55116    0.50630    1.000
    N3776    N        0.58783    0.59108    0.61657    1.000
    N3777    N        0.49800    0.57393    0.54339    1.000
    N3778    N        0.54090    0.54058    0.59475    1.000
    Si3779   Si       0.60516    0.59755    0.53164    1.000
    N3780    N        0.67703    0.54729    0.56983    1.000
    Si3781   Si       0.67451    0.59008    0.56601    1.000
    N3782    N        0.53978    0.55902    0.73542    1.000
    N3783    N        0.56901    0.55282    0.66656    1.000
    Si3784   Si       0.49956    0.57025    0.74046    1.000
    Si3785   Si       0.57280    0.59383    0.65729    1.000
    Si3786   Si       0.64334    0.58126    0.68157    1.000
    N3787    N        0.71032    0.54697    0.63951    1.000
    Si3788   Si       0.73184    0.58282    0.63777    1.000
    Si3789   Si       0.68984    0.56714    0.74351    1.000
    N3790    N        0.65199    0.56278    0.72071    1.000
    N3791    N        0.63976    0.54552    0.65842    1.000
    N3792    N        0.53500    0.57078    0.85214    1.000
    N3793    N        0.59919    0.55962    0.83961    1.000
    Si3794   Si       0.56219    0.56424    0.81863    1.000
    Si3795   Si       0.56600    0.58586    0.75690    1.000
    N3796    N        0.60736    0.57369    0.76602    1.000
    Si3797   Si       0.61803    0.59505    0.85385    1.000
    N3798    N        0.67884    0.57338    0.78441    1.000
    N3799    N        0.71219    0.57713    0.84930    1.000
    Si3800   Si       0.71646    0.58656    0.80797    1.000
    Si3801   Si       0.67873    0.55918    0.86843    1.000
    Si3802   Si       0.64006    0.60051    0.77945    1.000
    N3803    N        0.59972    0.56582    0.94532    1.000
    Si3804   Si       0.58891    0.57248    0.98691    1.000
    Si3805   Si       0.51555    0.59270    0.98880    1.000
    Si3806   Si       0.51748    0.54118    0.87770    1.000
    N3807    N        0.73542    0.57692    0.91708    1.000
    N3808    N        0.64745    0.58484    0.88441    1.000
    N3809    N        0.67040    0.58393    0.94622    1.000
    Si3810   Si       0.63301    0.59013    0.92595    1.000
    Si3811   Si       0.70294    0.55269    0.93720    1.000
    Si3812   Si       0.74306    0.56631    0.87658    1.000
    N3813    N        0.54697    0.62719    0.10046    1.000
    N3814    N        0.50499    0.64413    0.04217    1.000
    Si3815   Si       0.60733    0.62486    0.03782    1.000
    Si3816   Si       0.58339    0.60261    0.10160    1.000
    Si3817   Si       0.53852    0.65291    0.06717    1.000
    N3818    N        0.61263    0.63072    0.11608    1.000
    N3819    N        0.57466    0.65408    0.04137    1.000
    N3820    N        0.70310    0.61312    0.03845    1.000
    Si3821   Si       0.67607    0.64416    0.02957    1.000
    N3822    N        0.64069    0.64664    0.05435    1.000
    N3823    N        0.69078    0.60540    0.10959    1.000
    Si3824   Si       0.73754    0.60974    0.01120    1.000
    N3825    N        0.51313    0.62344    0.21933    1.000
    N3826    N        0.58066    0.61992    0.23733    1.000
    Si3827   Si       0.60705    0.63258    0.16108    1.000
    Si3828   Si       0.55238    0.61191    0.20538    1.000
    Si3829   Si       0.53012    0.63141    0.13973    1.000
    N3830    N        0.56294    0.63131    0.16915    1.000
    Si3831   Si       0.70604    0.64201    0.12489    1.000
    N3832    N        0.72160    0.64800    0.23782    1.000
    N3833    N        0.71965    0.63530    0.16828    1.000
    Si3834   Si       0.61956    0.60617    0.22630    1.000
    N3835    N        0.64986    0.63743    0.22561    1.000
    Si3836   Si       0.56627    0.63600    0.27616    1.000
    Si3837   Si       0.50239    0.64328    0.25723    1.000
    N3838    N        0.49388    0.62544    0.36217    1.000
    N3839    N        0.49127    0.61724    0.29050    1.000
    N3840    N        0.55590    0.60401    0.30529    1.000
    N3841    N        0.61581    0.60528    0.33808    1.000
    Si3842   Si       0.63067    0.63302    0.30974    1.000
    N3843    N        0.71910    0.63657    0.30450    1.000
    N3844    N        0.65676    0.60933    0.28410    1.000
    N3845    N        0.72576    0.62779    0.37028    1.000
    Si3846   Si       0.68105    0.63802    0.25621    1.000
    Si3847   Si       0.71117    0.60489    0.33757    1.000
    N3848    N        0.66001    0.65252    0.33872    1.000
    N3849    N        0.56003    0.59975    0.37628    1.000
    Si3850   Si       0.55393    0.64233    0.48823    1.000
    Si3851   Si       0.57769    0.63624    0.39292    1.000
    N3852    N        0.54217    0.61278    0.45742    1.000
    N3853    N        0.60211    0.62564    0.42685    1.000
    Si3854   Si       0.50194    0.60036    0.44563    1.000
    N3855    N        0.59035    0.61907    0.49559    1.000
    Si3856   Si       0.49863    0.65399    0.39798    1.000
    Si3857   Si       0.70308    0.62763    0.40850    1.000
    N3858    N        0.66363    0.64464    0.40510    1.000
    Si3859   Si       0.63979    0.64062    0.44077    1.000
    N3860    N        0.66445    0.61467    0.46715    1.000
    N3861    N        0.59194    0.62764    0.56217    1.000
    N3862    N        0.53232    0.64065    0.52702    1.000
    Si3863   Si       0.49596    0.61908    0.54299    1.000
    Si3864   Si       0.61037    0.62457    0.60023    1.000
    N3865    N        0.71793    0.61468    0.61316    1.000
    N3866    N        0.65150    0.61165    0.59720    1.000
    N3867    N        0.70914    0.60991    0.54798    1.000
    Si3868   Si       0.68239    0.61505    0.50870    1.000
    Si3869   Si       0.73692    0.62749    0.57834    1.000
    N3870    N        0.64739    0.59921    0.53206    1.000
    N3871    N        0.61009    0.65814    0.62888    1.000
    Si3872   Si       0.50810    0.64397    0.66343    1.000
    N3873    N        0.54943    0.63212    0.65655    1.000
    Si3874   Si       0.52674    0.64571    0.73720    1.000
    Si3875   Si       0.60650    0.63534    0.71828    1.000
    N3876    N        0.56542    0.62487    0.73385    1.000
    N3877    N        0.60779    0.60430    0.68561    1.000
    N3878    N        0.49905    0.61233    0.74447    1.000
    N3879    N        0.74041    0.60286    0.67557    1.000
    Si3880   Si       0.70528    0.62266    0.69077    1.000
    N3881    N        0.70242    0.60733    0.73116    1.000
    Si3882   Si       0.67787    0.62952    0.62698    1.000
    N3883    N        0.67140    0.61265    0.66637    1.000
    Si3884   Si       0.55427    0.64221    0.80579    1.000
    N3885    N        0.53174    0.63979    0.84336    1.000
    N3886    N        0.55671    0.60064    0.79669    1.000
    N3887    N        0.72837    0.62708    0.79778    1.000
    N3888    N        0.63940    0.61587    0.82201    1.000
    Si3889   Si       0.72827    0.63571    0.75436    1.000
    N3890    N        0.63084    0.63471    0.75376    1.000
    N3891    N        0.69997    0.65108    0.85876    1.000
    Si3892   Si       0.66031    0.65032    0.84159    1.000
    Si3893   Si       0.73470    0.65680    0.83016    1.000
    Si3894   Si       0.54193    0.60975    0.87169    1.000
    N3895    N        0.58490    0.61325    0.87493    1.000
    Si3896   Si       0.60094    0.64743    0.89961    1.000
    N3897    N        0.52122    0.61652    0.90898    1.000
    Si3898   Si       0.53196    0.65079    0.93432    1.000
    N3899    N        0.52020    0.63149    0.97496    1.000
    N3900    N        0.59932    0.61230    0.99495    1.000
    Si3901   Si       0.68613    0.62477    0.96052    1.000
    N3902    N        0.62087    0.63114    0.93359    1.000
    N3903    N        0.68627    0.65457    0.93029    1.000
    N3904    N        0.66206    0.64261    0.99029    1.000
    Si3905   Si       0.62067    0.64391    0.97466    1.000
    N3906    N        0.72569    0.61758    0.97109    1.000
    Si3907   Si       0.57895    0.69197    0.02033    1.000
    N3908    N        0.53838    0.69183    0.08407    1.000
    N3909    N        0.53662    0.70008    0.00715    1.000
    Si3910   Si       0.50916    0.66389    0.00284    1.000
    N3911    N        0.61104    0.69774    0.10336    1.000
    N3912    N        0.73560    0.66513    0.10262    1.000
    N3913    N        0.69921    0.68212    0.03536    1.000
    Si3914   Si       0.70408    0.68583    0.07940    1.000
    N3915    N        0.67446    0.66851    0.10879    1.000
    Si3916   Si       0.71991    0.70120    0.00068    1.000
    Si3917   Si       0.63459    0.66032    0.09430    1.000
    N3918    N        0.61019    0.70551    0.23330    1.000
    N3919    N        0.50500    0.66473    0.14935    1.000
    N3920    N        0.62354    0.67202    0.17097    1.000
    N3921    N        0.68044    0.69499    0.20281    1.000
    Si3922   Si       0.61888    0.70708    0.14576    1.000
    Si3923   Si       0.63968    0.67857    0.21134    1.000
    Si3924   Si       0.71599    0.66758    0.20082    1.000
    Si3925   Si       0.60368    0.70121    0.27778    1.000
    N3926    N        0.53615    0.66719    0.26780    1.000
    Si3927   Si       0.53369    0.70986    0.26238    1.000
    Si3928   Si       0.49662    0.70731    0.35289    1.000
    N3929    N        0.60058    0.65908    0.29132    1.000
    N3930    N        0.67458    0.67450    0.27738    1.000
    Si3931   Si       0.69189    0.66939    0.31638    1.000
    N3932    N        0.69919    0.71226    0.32339    1.000
    N3933    N        0.60051    0.66773    0.37521    1.000
    N3934    N        0.56485    0.68329    0.47376    1.000
    Si3935   Si       0.60025    0.70330    0.45798    1.000
    Si3936   Si       0.56860    0.69822    0.38413    1.000
    N3937    N        0.54151    0.66529    0.39686    1.000
    Si3938   Si       0.64427    0.66781    0.37524    1.000
    N3939    N        0.63600    0.68021    0.45845    1.000
    N3940    N        0.65348    0.71225    0.38115    1.000
    Si3941   Si       0.67283    0.68792    0.47876    1.000
    N3942    N        0.70196    0.69447    0.44687    1.000
    N3943    N        0.58001    0.69534    0.54077    1.000
    N3944    N        0.53954    0.67384    0.58718    1.000
    Si3945   Si       0.49725    0.66778    0.59195    1.000
    Si3946   Si       0.56247    0.65742    0.55374    1.000
    Si3947   Si       0.54452    0.71466    0.60618    1.000
    N3948    N        0.73795    0.66897    0.56406    1.000
    N3949    N        0.63562    0.69564    0.57702    1.000
    Si3950   Si       0.73476    0.67591    0.52142    1.000
    N3951    N        0.69444    0.66164    0.50451    1.000
    Si3952   Si       0.64050    0.68886    0.61865    1.000
    N3953    N        0.60282    0.67101    0.69610    1.000
    N3954    N        0.56050    0.70265    0.64566    1.000
    Si3955   Si       0.57886    0.66504    0.65857    1.000
    N3956    N        0.50878    0.66415    0.70273    1.000
    N3957    N        0.49322    0.67525    0.63544    1.000
    Si3958   Si       0.70400    0.69796    0.71458    1.000
    N3959    N        0.67923    0.67261    0.62492    1.000
    N3960    N        0.70755    0.66499    0.68577    1.000
    Si3961   Si       0.62420    0.70334    0.71353    1.000
    Si3962   Si       0.71209    0.68864    0.64868    1.000
    N3963    N        0.66472    0.71314    0.70298    1.000
    Si3964   Si       0.56210    0.70077    0.78124    1.000
    Si3965   Si       0.50307    0.67141    0.85023    1.000
    N3966    N        0.58768    0.67131    0.80215    1.000
    N3967    N        0.53488    0.66617    0.77457    1.000
    N3968    N        0.61998    0.70669    0.75700    1.000
    N3969    N        0.72603    0.69653    0.81592    1.000
    N3970    N        0.66036    0.67807    0.80598    1.000
    Si3971   Si       0.69431    0.69807    0.78710    1.000
    Si3972   Si       0.62436    0.67018    0.78059    1.000
    N3973    N        0.71000    0.67499    0.75188    1.000
    N3974    N        0.52147    0.70449    0.87080    1.000
    N3975    N        0.56665    0.66963    0.91148    1.000
    N3976    N        0.60371    0.68444    0.98362    1.000
    N3977    N        0.51477    0.68940    0.94082    1.000
    Si3978   Si       0.54119    0.71162    0.91143    1.000
    Si3979   Si       0.61184    0.71550    0.95483    1.000
    N3980    N        0.62954    0.66737    0.87006    1.000
    Si3981   Si       0.71468    0.66036    0.89893    1.000
    N3982    N        0.71710    0.70427    0.90881    1.000
    Si3983   Si       0.68115    0.69702    0.93713    1.000
    N3984    N        0.64191    0.70556    0.92365    1.000
    Si3985   Si       0.63388    0.71043    0.87994    1.000
    N3986    N        0.52407    0.75726    0.05113    1.000
    N3987    N        0.56382    0.74976    0.10573    1.000
    N3988    N        0.59342    0.72918    0.03939    1.000
    Si3989   Si       0.52889    0.74294    0.01008    1.000
    Si3990   Si       0.52690    0.73202    0.08696    1.000
    Si3991   Si       0.59746    0.76053    0.00659    1.000
    Si3992   Si       0.59803    0.73335    0.08220    1.000
    Si3993   Si       0.70478    0.74867    0.04644    1.000
    N3994    N        0.69244    0.72898    0.08315    1.000
    Si3995   Si       0.66359    0.75179    0.10957    1.000
    N3996    N        0.62536    0.76540    0.09374    1.000
    N3997    N        0.73930    0.73080    0.02740    1.000
    N3998    N        0.67491    0.76591    0.02248    1.000
    N3999    N        0.59014    0.73084    0.17018    1.000
    Si4000   Si       0.56228    0.75505    0.14858    1.000
    Si4001   Si       0.58575    0.73536    0.21541    1.000
    N4002    N        0.52116    0.75589    0.16256    1.000
    Si4003   Si       0.50717    0.74042    0.20149    1.000
    N4004    N        0.54232    0.72978    0.22216    1.000
    N4005    N        0.65635    0.72915    0.14607    1.000
    Si4006   Si       0.67287    0.73519    0.18478    1.000
    N4007    N        0.71418    0.75262    0.17920    1.000
    N4008    N        0.56686    0.72619    0.28510    1.000
    Si4009   Si       0.52763    0.76085    0.36074    1.000
    N4010    N        0.49645    0.73128    0.27366    1.000
    N4011    N        0.61012    0.76635    0.36726    1.000
    Si4012   Si       0.56144    0.76852    0.29370    1.000
    N4013    N        0.53939    0.71945    0.35819    1.000
    Si4014   Si       0.49163    0.77385    0.26026    1.000
    Si4015   Si       0.72740    0.76475    0.25813    1.000
    Si4016   Si       0.62552    0.75828    0.32485    1.000
    Si4017   Si       0.68386    0.73430    0.35862    1.000
    N4018    N        0.63218    0.72205    0.30362    1.000
    N4019    N        0.68863    0.74640    0.26173    1.000
    N4020    N        0.66720    0.77080    0.33493    1.000
    Si4021   Si       0.67235    0.71723    0.28751    1.000
    N4022    N        0.54025    0.76555    0.46111    1.000
    N4023    N        0.59872    0.73421    0.48778    1.000
    Si4024   Si       0.56821    0.75920    0.43019    1.000
    N4025    N        0.58867    0.72057    0.41709    1.000
    N4026    N        0.54993    0.77785    0.39335    1.000
    Si4027   Si       0.69552    0.73850    0.43141    1.000
    N4028    N        0.70887    0.74861    0.38967    1.000
    Si4029   Si       0.62630    0.74144    0.40093    1.000
    N4030    N        0.72336    0.75928    0.45964    1.000
    N4031    N        0.65492    0.75699    0.43077    1.000
    N4032    N        0.67157    0.73044    0.49623    1.000
    N4033    N        0.57877    0.74145    0.59254    1.000
    N4034    N        0.52950    0.74029    0.51973    1.000
    N4035    N        0.50956    0.73595    0.58847    1.000
    Si4036   Si       0.60550    0.72423    0.56241    1.000
    Si4037   Si       0.49711    0.72604    0.54537    1.000
    Si4038   Si       0.56272    0.71532    0.50599    1.000
    N4039    N        0.62634    0.75739    0.54453    1.000
    Si4040   Si       0.63426    0.75326    0.50169    1.000
    N4041    N        0.73392    0.74293    0.58837    1.000
    Si4042   Si       0.71360    0.74075    0.49918    1.000
    N4043    N        0.49418    0.73322    0.71175    1.000
    N4044    N        0.56652    0.77265    0.64681    1.000
    Si4045   Si       0.57914    0.75685    0.72473    1.000
    Si4046   Si       0.58985    0.73525    0.65282    1.000
    N4047    N        0.60100    0.73817    0.69560    1.000
    Si4048   Si       0.51986    0.75310    0.74111    1.000
    N4049    N        0.73930    0.72144    0.70806    1.000
    N4050    N        0.70102    0.73085    0.65179    1.000
    Si4051   Si       0.71811    0.76056    0.62520    1.000
    Si4052   Si       0.73547    0.76254    0.69297    1.000
    N4053    N        0.63056    0.72341    0.64225    1.000
    Si4054   Si       0.66063    0.74044    0.67032    1.000
    Si4055   Si       0.51658    0.73042    0.83630    1.000
    Si4056   Si       0.58704    0.75012    0.83552    1.000
    N4057    N        0.55441    0.72863    0.81684    1.000
    N4058    N        0.50229    0.77067    0.84840    1.000
    N4059    N        0.55529    0.72907    0.74715    1.000
    N4060    N        0.50844    0.76887    0.77865    1.000
    N4061    N        0.59792    0.73443    0.87307    1.000
    N4062    N        0.62465    0.75438    0.81274    1.000
    N4063    N        0.71504    0.76195    0.83076    1.000
    N4064    N        0.67652    0.73889    0.78066    1.000
    Si4065   Si       0.66939    0.75407    0.82457    1.000
    Si4066   Si       0.63249    0.74481    0.77076    1.000
    N4067    N        0.66903    0.72887    0.86066    1.000
    Si4068   Si       0.70554    0.76668    0.76157    1.000
    N4069    N        0.49674    0.74696    0.98108    1.000
    N4070    N        0.57628    0.73104    0.93124    1.000
    N4071    N        0.51894    0.75459    0.91535    1.000
    Si4072   Si       0.59222    0.76388    0.90661    1.000
    N4073    N        0.55799    0.76720    0.98939    1.000
    Si4074   Si       0.66940    0.75666    0.98109    1.000
    Si4075   Si       0.71316    0.73827    0.87228    1.000
    N4076    N        0.69001    0.71974    0.97291    1.000
    N4077    N        0.70395    0.77584    0.89423    1.000
    N4078    N        0.62619    0.75025    0.97624    1.000
    N4079    N        0.56397    0.81433    0.07595    1.000
    Si4080   Si       0.52485    0.79540    0.07088    1.000
    Si4081   Si       0.59207    0.79702    0.10477    1.000
    N4082    N        0.50233    0.80145    0.10747    1.000
    N4083    N        0.51665    0.82423    0.03887    1.000
    N4084    N        0.61688    0.79720    0.02165    1.000
    Si4085   Si       0.65738    0.80368    0.03372    1.000
    Si4086   Si       0.70986    0.80529    0.09077    1.000
    N4087    N        0.67412    0.81995    0.07026    1.000
    N4088    N        0.73272    0.78046    0.06490    1.000
    N4089    N        0.68792    0.78444    0.12387    1.000
    N4090    N        0.57846    0.79518    0.14777    1.000
    Si4091   Si       0.55919    0.81125    0.23794    1.000
    Si4092   Si       0.57495    0.83070    0.17209    1.000
    N4093    N        0.59020    0.77947    0.22523    1.000
    N4094    N        0.54205    0.82820    0.20444    1.000
    N4095    N        0.72005    0.80482    0.24283    1.000
    Si4096   Si       0.69183    0.78751    0.16627    1.000
    Si4097   Si       0.62718    0.80124    0.21439    1.000
    N4098    N        0.70734    0.82530    0.17558    1.000
    N4099    N        0.65699    0.77620    0.19256    1.000
    Si4100   Si       0.72822    0.83471    0.21270    1.000
    N4101    N        0.60029    0.78687    0.30129    1.000
    N4102    N        0.53338    0.78805    0.26431    1.000
    N4103    N        0.53759    0.78531    0.32626    1.000
    Si4104   Si       0.51560    0.82543    0.31878    1.000
    Si4105   Si       0.61386    0.82310    0.28071    1.000
    Si4106   Si       0.68345    0.81135    0.33705    1.000
    N4107    N        0.72544    0.81129    0.35228    1.000
    N4108    N        0.64567    0.81512    0.25249    1.000
    Si4109   Si       0.68543    0.83011    0.25911    1.000
    N4110    N        0.69509    0.83123    0.30097    1.000
    N4111    N        0.65827    0.83246    0.36429    1.000
    N4112    N        0.60054    0.79038    0.42842    1.000
    Si4113   Si       0.58821    0.79889    0.38677    1.000
    Si4114   Si       0.50048    0.77444    0.44280    1.000
    N4115    N        0.48801    0.79021    0.48306    1.000
    N4116    N        0.69913    0.82836    0.48323    1.000
    Si4117   Si       0.64139    0.79401    0.44580    1.000
    Si4118   Si       0.72726    0.80450    0.45944    1.000
    N4119    N        0.71448    0.81317    0.41773    1.000
    Si4120   Si       0.72997    0.78664    0.38844    1.000
    N4121    N        0.64194    0.79618    0.49172    1.000
    N4122    N        0.65185    0.83399    0.43006    1.000
    N4123    N        0.54909    0.81434    0.59077    1.000
    Si4124   Si       0.50597    0.81441    0.57877    1.000
    N4125    N        0.51786    0.80326    0.53776    1.000
    Si4126   Si       0.57732    0.78319    0.60483    1.000
    N4127    N        0.60030    0.82017    0.54723    1.000
    Si4128   Si       0.55733    0.82614    0.54386    1.000
    Si4129   Si       0.52863    0.78032    0.50050    1.000
    Si4130   Si       0.60623    0.82201    0.50343    1.000
    N4131    N        0.56435    0.81392    0.49849    1.000
    N4132    N        0.62076    0.79561    0.60446    1.000
    Si4133   Si       0.63234    0.79701    0.56380    1.000
    Si4134   Si       0.68250    0.80360    0.51360    1.000
    N4135    N        0.67225    0.81558    0.55414    1.000
    Si4136   Si       0.70383    0.82108    0.58346    1.000
    N4137    N        0.68930    0.79374    0.61527    1.000
    N4138    N        0.71146    0.77448    0.52620    1.000
    Si4139   Si       0.54132    0.79625    0.67510    1.000
    N4140    N        0.49612    0.79534    0.66967    1.000
    N4141    N        0.54504    0.77998    0.71349    1.000
    N4142    N        0.65696    0.78425    0.67213    1.000
    Si4143   Si       0.65080    0.80609    0.63447    1.000
    N4144    N        0.70542    0.77878    0.72056    1.000
    Si4145   Si       0.68325    0.80896    0.69857    1.000
    N4146    N        0.57974    0.79476    0.83223    1.000
    Si4147   Si       0.59770    0.81984    0.75487    1.000
    Si4148   Si       0.49366    0.79279    0.81105    1.000
    N4149    N        0.51712    0.82966    0.81788    1.000
    Si4150   Si       0.56007    0.83050    0.81103    1.000
    N4151    N        0.60800    0.77615    0.75082    1.000
    N4152    N        0.62308    0.82807    0.78948    1.000
    Si4153   Si       0.62209    0.79756    0.82077    1.000
    Si4154   Si       0.71860    0.80708    0.82322    1.000
    N4155    N        0.70253    0.80357    0.78205    1.000
    N4156    N        0.66107    0.79597    0.84124    1.000
    Si4157   Si       0.50044    0.78370    0.88909    1.000
    N4158    N        0.56798    0.79591    0.92426    1.000
    N4159    N        0.51635    0.82564    0.89214    1.000
    N4160    N        0.50353    0.80730    0.95933    1.000
    Si4161   Si       0.53481    0.77597    0.95093    1.000
    Si4162   Si       0.62678    0.82753    0.91517    1.000
    Si4163   Si       0.72306    0.78657    0.93225    1.000
    Si4164   Si       0.66697    0.79458    0.88385    1.000
    N4165    N        0.62851    0.78708    0.90112    1.000
    N4166    N        0.73891    0.82559    0.92324    1.000
    N4167    N        0.68641    0.79216    0.95925    1.000
    N4168    N        0.58846    0.85641    0.02318    1.000
    Si4169   Si       0.55321    0.84794    0.04896    1.000
    N4170    N        0.50975    0.87411    0.11685    1.000
    Si4171   Si       0.59494    0.87278    0.11546    1.000
    N4172    N        0.52365    0.88598    0.04261    1.000
    N4173    N        0.57218    0.88511    0.07983    1.000
    Si4174   Si       0.61490    0.83402    0.99845    1.000
    N4175    N        0.61554    0.83612    0.10728    1.000
    N4176    N        0.71192    0.88135    0.03136    1.000
    Si4177   Si       0.65204    0.85471    0.09120    1.000
    Si4178   Si       0.66899    0.87858    0.02784    1.000
    N4179    N        0.64012    0.88196    0.06093    1.000
    N4180    N        0.65917    0.84051    0.00729    1.000
    N4181    N        0.73562    0.83705    0.10837    1.000
    N4182    N        0.56732    0.86536    0.14914    1.000
    Si4183   Si       0.50447    0.84887    0.20191    1.000
    Si4184   Si       0.60103    0.87298    0.22489    1.000
    N4185    N        0.60852    0.83780    0.19896    1.000
    N4186    N        0.51254    0.88872    0.18701    1.000
    N4187    N        0.73977    0.88527    0.15751    1.000
    N4188    N        0.69911    0.86193    0.23241    1.000
    N4189    N        0.63872    0.88814    0.24384    1.000
    N4190    N        0.67721    0.87039    0.12293    1.000
    Si4191   Si       0.71225    0.85341    0.14383    1.000
    N4192    N        0.54677    0.85655    0.31596    1.000
    Si4193   Si       0.56109    0.87677    0.28086    1.000
    Si4194   Si       0.54990    0.85642    0.35871    1.000
    N4195    N        0.58258    0.84571    0.25738    1.000
    N4196    N        0.52523    0.88393    0.25475    1.000
    N4197    N        0.50740    0.83547    0.36150    1.000
    N4198    N        0.58759    0.83775    0.36811    1.000
    N4199    N        0.62548    0.85457    0.30763    1.000
    Si4200   Si       0.62324    0.85432    0.35203    1.000
    Si4201   Si       0.73370    0.83907    0.31860    1.000
    N4202    N        0.73452    0.88141    0.32885    1.000
    N4203    N        0.61360    0.86073    0.48498    1.000
    N4204    N        0.49133    0.87184    0.41880    1.000
    N4205    N        0.73176    0.88276    0.46129    1.000
    N4206    N        0.69997    0.87709    0.39636    1.000
    Si4207   Si       0.68254    0.83816    0.40102    1.000
    Si4208   Si       0.63412    0.87089    0.44340    1.000
    Si4209   Si       0.69246    0.87218    0.47971    1.000
    N4210    N        0.54985    0.87006    0.53760    1.000
    N4211    N        0.56828    0.88175    0.60646    1.000
    Si4212   Si       0.51883    0.88822    0.51212    1.000
    N4213    N        0.50318    0.85162    0.62085    1.000
    Si4214   Si       0.54606    0.84798    0.62107    1.000
    N4215    N        0.70670    0.85915    0.60379    1.000
    N4216    N        0.67456    0.88820    0.51487    1.000
    Si4217   Si       0.63322    0.88932    0.51597    1.000
    Si4218   Si       0.57275    0.86486    0.69022    1.000
    N4219    N        0.60148    0.84410    0.71668    1.000
    N4220    N        0.54843    0.88770    0.71657    1.000
    N4221    N        0.55237    0.83759    0.66252    1.000
    N4222    N        0.59643    0.88924    0.66507    1.000
    N4223    N        0.65176    0.84835    0.64660    1.000
    N4224    N        0.66676    0.83868    0.72674    1.000
    N4225    N        0.71064    0.83640    0.67942    1.000
    Si4226   Si       0.69618    0.85767    0.64521    1.000
    Si4227   Si       0.63552    0.86896    0.72575    1.000
    Si4228   Si       0.63994    0.88890    0.65706    1.000
    N4229    N        0.73239    0.85424    0.74395    1.000
    N4230    N        0.56848    0.86489    0.83343    1.000
    Si4231   Si       0.51114    0.87238    0.82279    1.000
    Si4232   Si       0.59808    0.88121    0.86066    1.000
    Si4233   Si       0.53397    0.86962    0.75258    1.000
    N4234    N        0.56044    0.83725    0.76715    1.000
    N4235    N        0.50544    0.89124    0.86161    1.000
    Si4236   Si       0.70574    0.87646    0.82869    1.000
    Si4237   Si       0.64063    0.86683    0.79852    1.000
    N4238    N        0.68392    0.86425    0.79282    1.000
    N4239    N        0.63652    0.87962    0.84084    1.000
    N4240    N        0.71023    0.83687    0.85290    1.000
    Si4241   Si       0.69358    0.83991    0.75998    1.000
    N4242    N        0.62555    0.88969    0.76424    1.000
    N4243    N        0.53832    0.86865    0.93498    1.000
    Si4244   Si       0.50015    0.85128    0.95208    1.000
    N4245    N        0.59480    0.85258    0.89490    1.000
    Si4246   Si       0.55539    0.83531    0.90967    1.000
    N4247    N        0.48954    0.86868    0.99180    1.000
    N4248    N        0.72122    0.88768    0.90329    1.000
    Si4249   Si       0.71020    0.84506    0.89539    1.000
    N4250    N        0.70484    0.86567    0.96093    1.000
    N4251    N        0.62670    0.83597    0.95630    1.000
    N4252    N        0.67000    0.83386    0.90674    1.000
    Si4253   Si       0.67267    0.83531    0.96541    1.000
    N4254    N        0.59981    0.92810    0.02117    1.000
    Si4255   Si       0.50712    0.90604    0.00739    1.000
    N4256    N        0.51392    0.94073    0.08250    1.000
    Si4257   Si       0.52937    0.90029    0.08387    1.000
    Si4258   Si       0.60114    0.89237    0.04546    1.000
    Si4259   Si       0.70916    0.92026    0.00688    1.000
    N4260    N        0.66498    0.91712    0.01053    1.000
    Si4261   Si       0.63769    0.94962    0.02123    1.000
    N4262    N        0.71623    0.94794    0.04126    1.000
    N4263    N        0.54834    0.92812    0.13495    1.000
    Si4264   Si       0.59194    0.93869    0.14294    1.000
    Si4265   Si       0.53008    0.91043    0.22293    1.000
    N4266    N        0.57485    0.90777    0.21802    1.000
    N4267    N        0.49849    0.94162    0.22896    1.000
    Si4268   Si       0.59238    0.94737    0.21839    1.000
    Si4269   Si       0.53277    0.89057    0.14964    1.000
    N4270    N        0.69120    0.93509    0.23303    1.000
    N4271    N        0.66158    0.90552    0.18292    1.000
    Si4272   Si       0.73770    0.91969    0.13261    1.000
    N4273    N        0.61894    0.90780    0.13088    1.000
    N4274    N        0.69548    0.93306    0.13055    1.000
    Si4275   Si       0.66265    0.90686    0.14069    1.000
    Si4276   Si       0.67468    0.89601    0.22257    1.000
    N4277    N        0.58872    0.91096    0.28774    1.000
    N4278    N        0.62326    0.89663    0.36214    1.000
    N4279    N        0.66182    0.91831    0.29918    1.000
    Si4280   Si       0.64587    0.92788    0.33879    1.000
    N4281    N        0.68504    0.92997    0.35873    1.000
    Si4282   Si       0.69138    0.94183    0.27585    1.000
    Si4283   Si       0.71800    0.90158    0.36256    1.000
    N4284    N        0.73542    0.93988    0.28430    1.000
    Si4285   Si       0.62959    0.89321    0.28675    1.000
    N4286    N        0.54173    0.90255    0.47787    1.000
    Si4287   Si       0.52865    0.94097    0.46574    1.000
    Si4288   Si       0.59183    0.90761    0.38961    1.000
    N4289    N        0.52553    0.93825    0.42374    1.000
    Si4290   Si       0.51055    0.90746    0.39892    1.000
    N4291    N        0.55045    0.89487    0.37752    1.000
    N4292    N        0.61174    0.92186    0.49199    1.000
    N4293    N        0.59800    0.89158    0.42969    1.000
    Si4294   Si       0.58396    0.89312    0.47241    1.000
    N4295    N        0.74118    0.92138    0.39560    1.000
    Si4296   Si       0.67166    0.94197    0.46985    1.000
    Si4297   Si       0.71238    0.90782    0.42851    1.000
    N4298    N        0.66901    0.89871    0.45241    1.000
    N4299    N        0.71262    0.94542    0.45223    1.000
    N4300    N        0.56143    0.93688    0.56376    1.000
    N4301    N        0.50073    0.92612    0.52881    1.000
    N4302    N        0.50138    0.91418    0.59551    1.000
    Si4303   Si       0.51687    0.94774    0.56411    1.000
    Si4304   Si       0.57273    0.89428    0.56378    1.000
    N4305    N        0.73557    0.92439    0.52288    1.000
    Si4306   Si       0.63939    0.91924    0.58048    1.000
    N4307    N        0.68215    0.91780    0.57504    1.000
    Si4308   Si       0.69390    0.92345    0.53451    1.000
    Si4309   Si       0.70795    0.90302    0.60499    1.000
    N4310    N        0.61629    0.89387    0.55516    1.000
    Si4311   Si       0.50550    0.94250    0.62934    1.000
    N4312    N        0.50440    0.94414    0.71653    1.000
    Si4313   Si       0.57304    0.91303    0.63833    1.000
    Si4314   Si       0.53891    0.92644    0.69916    1.000
    N4315    N        0.53424    0.91890    0.65527    1.000
    N4316    N        0.69807    0.94592    0.71116    1.000
    Si4317   Si       0.72112    0.92563    0.68070    1.000
    N4318    N        0.65039    0.89977    0.69835    1.000
    N4319    N        0.70263    0.90019    0.65032    1.000
    N4320    N        0.63993    0.91610    0.62411    1.000
    Si4321   Si       0.65614    0.94077    0.70968    1.000
    Si4322   Si       0.53910    0.93572    0.79371    1.000
    N4323    N        0.55207    0.93900    0.83520    1.000
    Si4324   Si       0.52186    0.92977    0.86445    1.000
    N4325    N        0.57222    0.94673    0.76577    1.000
    N4326    N        0.51977    0.89684    0.78541    1.000
    Si4327   Si       0.61115    0.92956    0.77241    1.000
    Si4328   Si       0.59146    0.94961    0.84470    1.000
    N4329    N        0.72757    0.92306    0.76978    1.000
    N4330    N        0.62063    0.93650    0.81319    1.000
    N4331    N        0.69037    0.91525    0.83481    1.000
    Si4332   Si       0.64849    0.92498    0.84433    1.000
    Si4333   Si       0.71225    0.94177    0.80585    1.000
    N4334    N        0.60760    0.92282    0.87619    1.000
    Si4335   Si       0.54830    0.91136    0.93676    1.000
    N4336    N        0.53741    0.92014    0.97960    1.000
    N4337    N        0.58977    0.92168    0.94752    1.000
    N4338    N        0.53607    0.94038    0.90677    1.000
    Si4339   Si       0.57610    0.93835    0.98602    1.000
    N4340    N        0.71601    0.93330    0.96690    1.000
    Si4341   Si       0.62175    0.92892    0.91840    1.000
    N4342    N        0.65971    0.90915    0.92774    1.000
    Si4343   Si       0.70118    0.90192    0.93672    1.000
    N4344    N        0.59001    0.96789    0.10995    1.000
    Si4345   Si       0.54427    0.96549    0.10671    1.000
    Si4346   Si       0.50940    0.97366    0.05070    1.000
    N4347    N        0.52013    0.99208    0.01245    1.000
    N4348    N        0.54439    0.99612    0.07186    1.000
    Si4349   Si       0.62623    0.98537    0.09435    1.000
    Si4350   Si       0.69168    0.97980    0.05802    1.000
    N4351    N        0.64958    0.96549    0.06305    1.000
    N4352    N        0.71199    0.99060    0.09544    1.000
    N4353    N        0.50941    0.98484    0.12774    1.000
    Si4354   Si       0.51162    0.98225    0.22023    1.000
    N4355    N        0.55400    0.97066    0.22404    1.000
    N4356    N        0.60474    0.96006    0.17804    1.000
    Si4357   Si       0.63060    0.99308    0.17255    1.000
    Si4358   Si       0.69646    0.97019    0.20744    1.000
    Si4359   Si       0.69173    0.97569    0.13170    1.000
    N4360    N        0.71029    0.98740    0.16701    1.000
    N4361    N        0.65041    0.98857    0.13211    1.000
    N4362    N        0.65846    0.99081    0.20683    1.000
    Si4363   Si       0.64392    0.99698    0.24793    1.000
    N4364    N        0.56149    0.98280    0.29711    1.000
    Si4365   Si       0.53196    0.99697    0.32509    1.000
    N4366    N        0.52766    0.97369    0.36030    1.000
    Si4367   Si       0.55743    0.99784    0.25711    1.000
    N4368    N        0.61165    0.96983    0.25383    1.000
    N4369    N        0.49210    0.98719    0.30927    1.000
    Si4370   Si       0.61269    0.97980    0.36880    1.000
    Si4371   Si       0.59531    0.95521    0.29246    1.000
    N4372    N        0.61798    0.95997    0.32904    1.000
    N4373    N        0.70575    0.98504    0.33059    1.000
    N4374    N        0.67766    0.98513    0.27445    1.000
    Si4375   Si       0.69156    0.97228    0.36924    1.000
    Si4376   Si       0.60503    0.96231    0.48082    1.000
    N4377    N        0.56126    0.96638    0.47977    1.000
    Si4378   Si       0.54452    0.96661    0.39789    1.000
    N4379    N        0.49724    0.97024    0.48199    1.000
    N4380    N        0.58575    0.95188    0.39039    1.000
    N4381    N        0.54912    0.00415    0.41806    1.000
    N4382    N        0.71798    0.99316    0.39756    1.000
    Si4383   Si       0.65425    0.00716    0.42595    1.000
    N4384    N        0.65232    0.98390    0.38805    1.000
    Si4385   Si       0.72194    0.98554    0.44083    1.000
    N4386    N        0.63930    0.96529    0.45228    1.000
    N4387    N        0.68929    0.01112    0.45525    1.000
    N4388    N        0.52911    0.98840    0.54466    1.000
    Si4389   Si       0.58728    0.96538    0.58369    1.000
    Si4390   Si       0.53263    0.99201    0.50155    1.000
    N4391    N        0.57854    0.00920    0.58891    1.000
    Si4392   Si       0.49371    0.00373    0.61792    1.000
    N4393    N        0.61670    0.99699    0.50801    1.000
    Si4394   Si       0.64654    0.98203    0.53689    1.000
    N4395    N        0.62843    0.95960    0.56764    1.000
    N4396    N        0.71084    0.98750    0.60829    1.000
    N4397    N        0.67283    0.95487    0.51364    1.000
    Si4398   Si       0.67746    0.01196    0.60302    1.000
    N4399    N        0.56577    0.95956    0.69609    1.000
    N4400    N        0.52452    0.98214    0.63753    1.000
    Si4401   Si       0.56263    0.97891    0.65713    1.000
    Si4402   Si       0.57980    0.97575    0.73220    1.000
    N4403    N        0.58804    0.95286    0.62753    1.000
    N4404    N        0.64054    0.99969    0.62425    1.000
    N4405    N        0.64086    0.96547    0.67685    1.000
    Si4406   Si       0.62672    0.00605    0.68099    1.000
    Si4407   Si       0.63103    0.95784    0.63618    1.000
    Si4408   Si       0.72069    0.95962    0.74471    1.000
    N4409    N        0.59781    0.99136    0.85161    1.000
    N4410    N        0.50883    0.96801    0.79100    1.000
    N4411    N        0.49487    0.96575    0.86171    1.000
    Si4412   Si       0.49127    0.96426    0.75318    1.000
    Si4413   Si       0.49094    0.98911    0.82361    1.000
    N4414    N        0.61550    0.00647    0.79046    1.000
    Si4415   Si       0.63763    0.99933    0.83085    1.000
    N4416    N        0.69932    0.97587    0.78042    1.000
    N4417    N        0.65838    0.96780    0.85617    1.000
    Si4418   Si       0.63749    0.99907    0.75329    1.000
    N4419    N        0.63371    0.95664    0.74361    1.000
    Si4420   Si       0.51829    0.98070    0.90044    1.000
    N4421    N        0.57740    0.98197    0.97887    1.000
    N4422    N        0.70919    0.00703    0.96336    1.000
    N4423    N        0.70986    0.96948    0.90591    1.000
    Si4424   Si       0.72565    0.97022    0.94813    1.000
    Si4425   Si       0.61410    0.99325    0.95780    1.000
    Si4426   Si       0.66752    0.98133    0.89723    1.000
    N4427    N        0.64382    0.98309    0.99116    1.000
    N4428    N        0.63280    0.97309    0.92375    1.000
    N4429    N        0.81156    0.03699    0.04838    1.000
    Si4430   Si       0.84134    0.03459    0.01572    1.000
    Si4431   Si       0.78040    0.06499    0.05652    1.000
    N4432    N        0.78584    0.01849    0.10823    1.000
    N4433    N        0.74252    0.04331    0.06203    1.000
    Si4434   Si       0.74499    0.01923    0.09802    1.000
    Si4435   Si       0.91960    0.03538    0.01002    1.000
    N4436    N        0.88020    0.02255    0.02708    1.000
    N4437    N        0.93990    0.06801    0.03043    1.000
    Si4438   Si       0.77944    0.04439    0.14292    1.000
    N4439    N        0.83183    0.04437    0.20924    1.000
    Si4440   Si       0.75391    0.02011    0.21590    1.000
    Si4441   Si       0.85598    0.03146    0.24592    1.000
    N4442    N        0.77872    0.01561    0.17776    1.000
    Si4443   Si       0.89862    0.06380    0.20015    1.000
    N4444    N        0.91770    0.02720    0.18293    1.000
    N4445    N        0.88964    0.05847    0.24180    1.000
    Si4446   Si       0.95639    0.01711    0.19688    1.000
    N4447    N        0.98921    0.04915    0.19756    1.000
    N4448    N        0.79332    0.04802    0.35786    1.000
    N4449    N        0.83419    0.02577    0.28342    1.000
    Si4450   Si       0.85601    0.04349    0.31874    1.000
    Si4451   Si       0.75773    0.04437    0.33510    1.000
    N4452    N        0.77154    0.03148    0.25109    1.000
    Si4453   Si       0.74642    0.06388    0.26944    1.000
    N4454    N        0.84799    0.01318    0.35150    1.000
    N4455    N        0.89851    0.04868    0.30617    1.000
    Si4456   Si       0.92138    0.05330    0.34604    1.000
    N4457    N        0.96529    0.05585    0.34228    1.000
    Si4458   Si       0.98247    0.06004    0.30186    1.000
    N4459    N        0.91509    0.01680    0.36734    1.000
    Si4460   Si       0.81508    0.01786    0.37887    1.000
    N4461    N        0.81162    0.03486    0.41906    1.000
    Si4462   Si       0.77159    0.03841    0.43782    1.000
    Si4463   Si       0.83123    0.05251    0.49571    1.000
    N4464    N        0.80684    0.01768    0.49095    1.000
    Si4465   Si       0.90374    0.06110    0.49722    1.000
    N4466    N        0.97487    0.02867    0.40643    1.000
    N4467    N        0.98686    0.06640    0.46182    1.000
    N4468    N        0.92116    0.04408    0.46277    1.000
    N4469    N        0.81310    0.02742    0.56929    1.000
    N4470    N        0.74596    0.04852    0.57306    1.000
    Si4471   Si       0.77193    0.01408    0.57442    1.000
    Si4472   Si       0.76378    0.01218    0.50091    1.000
    Si4473   Si       0.89672    0.04204    0.56784    1.000
    N4474    N        0.91159    0.03925    0.61001    1.000
    N4475    N        0.92446    0.05657    0.53606    1.000
    Si4476   Si       0.96687    0.05924    0.54377    1.000
    N4477    N        0.86954    0.03475    0.50411    1.000
    N4478    N        0.96999    0.06527    0.58754    1.000
    N4479    N        0.99105    0.02217    0.54225    1.000
    N4480    N        0.86430    0.03096    0.70721    1.000
    N4481    N        0.79707    0.04199    0.74042    1.000
    N4482    N        0.85412    0.01679    0.64077    1.000
    Si4483   Si       0.83452    0.03485    0.67440    1.000
    Si4484   Si       0.83988    0.03438    0.74302    1.000
    N4485    N        0.75045    0.06952    0.64710    1.000
    Si4486   Si       0.75790    0.02403    0.74657    1.000
    Si4487   Si       0.90897    0.02421    0.70807    1.000
    N4488    N        0.92782    0.01138    0.66965    1.000
    N4489    N        0.92204    0.06334    0.71964    1.000
    Si4490   Si       0.89707    0.00955    0.63704    1.000
    N4491    N        0.85683    0.04332    0.78062    1.000
    N4492    N        0.85736    0.03720    0.84532    1.000
    N4493    N        0.74167    0.02956    0.78818    1.000
    N4494    N        0.75565    0.00935    0.86482    1.000
    N4495    N        0.92506    0.02512    0.85344    1.000
    N4496    N        0.95716    0.02643    0.79020    1.000
    Si4497   Si       0.93853    0.05043    0.82023    1.000
    Si4498   Si       0.75940    0.05183    0.87728    1.000
    N4499    N        0.77138    0.03737    0.96990    1.000
    Si4500   Si       0.84348    0.05701    0.88165    1.000
    N4501    N        0.80065    0.06065    0.89146    1.000
    N4502    N        0.83214    0.06787    0.99019    1.000
    Si4503   Si       0.95828    0.01256    0.96175    1.000
    Si4504   Si       0.90929    0.04897    0.92567    1.000
    N4505    N        0.94373    0.02132    0.92109    1.000
    Si4506   Si       0.95959    0.01476    0.87960    1.000
    N4507    N        0.91392    0.04854    0.96855    1.000
    N4508    N        0.87167    0.03639    0.90979    1.000
    N4509    N        0.98418    0.03667    0.98831    1.000
    N4510    N        0.77458    0.09238    0.02089    1.000
    N4511    N        0.78583    0.09854    0.08282    1.000
    N4512    N        0.84868    0.11316    0.10983    1.000
    Si4513   Si       0.80379    0.11328    0.11880    1.000
    Si4514   Si       0.77787    0.12812    0.04670    1.000
    Si4515   Si       0.92239    0.08968    0.06606    1.000
    N4516    N        0.95700    0.11501    0.07654    1.000
    N4517    N        0.88470    0.10785    0.05382    1.000
    N4518    N        0.91543    0.08401    0.10787    1.000
    Si4519   Si       0.97384    0.07714    0.00213    1.000
    Si4520   Si       0.94384    0.11801    0.12205    1.000
    Si4521   Si       0.82805    0.08146    0.18436    1.000
    N4522    N        0.81234    0.11721    0.20493    1.000
    N4523    N        0.80197    0.08033    0.14837    1.000
    N4524    N        0.75153    0.09476    0.23864    1.000
    Si4525   Si       0.77082    0.12582    0.21417    1.000
    N4526    N        0.87155    0.08457    0.17196    1.000
    N4527    N        0.97357    0.10329    0.15079    1.000
    Si4528   Si       0.88207    0.09822    0.13247    1.000
    N4529    N        0.93059    0.09311    0.19955    1.000
    Si4530   Si       0.97314    0.08921    0.19200    1.000
    Si4531   Si       0.80744    0.08929    0.35550    1.000
    N4532    N        0.84253    0.08488    0.32978    1.000
    N4533    N        0.76545    0.07936    0.30684    1.000
    Si4534   Si       0.75123    0.11833    0.32210    1.000
    N4535    N        0.77789    0.12070    0.35570    1.000
    Si4536   Si       0.87426    0.11180    0.33007    1.000
    N4537    N        0.90440    0.09276    0.35554    1.000
    N4538    N        0.95289    0.08240    0.27713    1.000
    N4539    N        0.88916    0.11691    0.28969    1.000
    Si4540   Si       0.90850    0.07831    0.27727    1.000
    Si4541   Si       0.97172    0.12103    0.26273    1.000
    N4542    N        0.81725    0.10035    0.39772    1.000
    N4543    N        0.84921    0.08157    0.46321    1.000
    Si4544   Si       0.81974    0.07634    0.43221    1.000
    N4545    N        0.78347    0.07426    0.46063    1.000
    Si4546   Si       0.97257    0.12758    0.41254    1.000
    N4547    N        0.87780    0.12489    0.41415    1.000
    Si4548   Si       0.91340    0.11592    0.39052    1.000
    Si4549   Si       0.94429    0.07982    0.45500    1.000
    N4550    N        0.94068    0.09299    0.41450    1.000
    Si4551   Si       0.87420    0.11602    0.45683    1.000
    N4552    N        0.91329    0.10465    0.47715    1.000
    N4553    N        0.80443    0.09159    0.59765    1.000
    N4554    N        0.81189    0.07800    0.52277    1.000
    N4555    N        0.74733    0.10962    0.52435    1.000
    N4556    N        0.86521    0.07331    0.56757    1.000
    Si4557   Si       0.82188    0.06837    0.56513    1.000
    Si4558   Si       0.78165    0.09884    0.49786    1.000
    Si4559   Si       0.87576    0.11338    0.58321    1.000
    N4560    N        0.91320    0.10469    0.60492    1.000
    Si4561   Si       0.93969    0.07420    0.61666    1.000
    N4562    N        0.98656    0.09444    0.52439    1.000
    N4563    N        0.76740    0.10149    0.70555    1.000
    N4564    N        0.83267    0.09483    0.73285    1.000
    Si4565   Si       0.78962    0.09110    0.63629    1.000
    N4566    N        0.82158    0.07558    0.66483    1.000
    Si4567   Si       0.79104    0.08614    0.73891    1.000
    Si4568   Si       0.84278    0.10837    0.68855    1.000
    Si4569   Si       0.73770    0.07597    0.68849    1.000
    Si4570   Si       0.92451    0.09757    0.69308    1.000
    N4571    N        0.94768    0.08314    0.65865    1.000
    N4572    N        0.88529    0.11410    0.67342    1.000
    N4573    N        0.77197    0.09857    0.77506    1.000
    Si4574   Si       0.76117    0.11565    0.85421    1.000
    N4575    N        0.85289    0.09811    0.86555    1.000
    N4576    N        0.85097    0.11003    0.80098    1.000
    N4577    N        0.75260    0.07366    0.83991    1.000
    Si4578   Si       0.86376    0.06989    0.81418    1.000
    Si4579   Si       0.74274    0.07509    0.79652    1.000
    Si4580   Si       0.98134    0.11158    0.79243    1.000
    Si4581   Si       0.92734    0.11349    0.82311    1.000
    N4582    N        0.90623    0.07680    0.81572    1.000
    N4583    N        0.96561    0.08739    0.82832    1.000
    N4584    N        0.76260    0.11426    0.89717    1.000
    Si4585   Si       0.79796    0.09527    0.91451    1.000
    N4586    N        0.83821    0.09974    0.93032    1.000
    N4587    N        0.78071    0.10341    0.95374    1.000
    Si4588   Si       0.85187    0.10481    0.97291    1.000
    Si4589   Si       0.78917    0.07361    0.98488    1.000
    N4590    N        0.89163    0.12222    0.97091    1.000
    Si4591   Si       0.92800    0.11202    0.95040    1.000
    N4592    N        0.91055    0.09246    0.91503    1.000
    N4593    N        0.98051    0.10494    0.89112    1.000
    Si4594   Si       0.87084    0.11195    0.90434    1.000
    N4595    N        0.96755    0.10260    0.96822    1.000
    N4596    N        0.81752    0.14625    0.05706    1.000
    N4597    N        0.77777    0.15856    0.01028    1.000
    Si4598   Si       0.82467    0.16791    0.01867    1.000
    Si4599   Si       0.85789    0.13762    0.06898    1.000
    Si4600   Si       0.74465    0.18004    0.02710    1.000
    N4601    N        0.74147    0.14749    0.06110    1.000
    Si4602   Si       0.73867    0.14317    0.10640    1.000
    N4603    N        0.87115    0.16722    0.02799    1.000
    N4604    N        0.87361    0.17334    0.09150    1.000
    Si4605   Si       0.96082    0.15845    0.07339    1.000
    N4606    N        0.96159    0.16338    0.11709    1.000
    N4607    N        0.77955    0.14926    0.12416    1.000
    N4608    N        0.85681    0.16691    0.16460    1.000
    Si4609   Si       0.84449    0.14666    0.20257    1.000
    N4610    N        0.76778    0.16252    0.23703    1.000
    N4611    N        0.82648    0.18623    0.21813    1.000
    N4612    N        0.75832    0.18601    0.17612    1.000
    Si4613   Si       0.91203    0.13313    0.19056    1.000
    N4614    N        0.94292    0.16598    0.19022    1.000
    N4615    N        0.88197    0.13856    0.22124    1.000
    N4616    N        0.90873    0.13383    0.14302    1.000
    Si4617   Si       0.88636    0.17064    0.13248    1.000
    N4618    N        0.74682    0.15833    0.30395    1.000
    N4619    N        0.86357    0.17696    0.28320    1.000
    N4620    N        0.86258    0.14848    0.35030    1.000
    Si4621   Si       0.76047    0.18350    0.27316    1.000
    Si4622   Si       0.87237    0.18525    0.32577    1.000
    Si4623   Si       0.89601    0.15607    0.25920    1.000
    N4624    N        0.93996    0.14850    0.25801    1.000
    Si4625   Si       0.82074    0.17006    0.48866    1.000
    N4626    N        0.81145    0.16374    0.40414    1.000
    N4627    N        0.85734    0.15398    0.47227    1.000
    Si4628   Si       0.85414    0.15460    0.39182    1.000
    N4629    N        0.78795    0.14107    0.49038    1.000
    Si4630   Si       0.78564    0.12982    0.39783    1.000
    N4631    N        0.74891    0.12709    0.41919    1.000
    Si4632   Si       0.93797    0.14282    0.47962    1.000
    N4633    N        0.92253    0.18134    0.45825    1.000
    N4634    N        0.97193    0.13268    0.45841    1.000
    Si4635   Si       0.91617    0.18498    0.41343    1.000
    N4636    N        0.93801    0.15298    0.39467    1.000
    Si4637   Si       0.88366    0.18870    0.47738    1.000
    N4638    N        0.76123    0.17920    0.54206    1.000
    Si4639   Si       0.75043    0.15106    0.51130    1.000
    Si4640   Si       0.84753    0.18424    0.60942    1.000
    N4641    N        0.82933    0.18261    0.52975    1.000
    N4642    N        0.73845    0.17674    0.60736    1.000
    N4643    N        0.86347    0.14292    0.61440    1.000
    Si4644   Si       0.86941    0.18111    0.54499    1.000
    N4645    N        0.88101    0.14005    0.55137    1.000
    N4646    N        0.94928    0.14792    0.52135    1.000
    Si4647   Si       0.96049    0.17195    0.60286    1.000
    N4648    N        0.98145    0.13540    0.58572    1.000
    Si4649   Si       0.98576    0.13393    0.54348    1.000
    Si4650   Si       0.77656    0.14011    0.68759    1.000
    N4651    N        0.81951    0.14519    0.69060    1.000
    N4652    N        0.74366    0.16742    0.69939    1.000
    N4653    N        0.77236    0.13055    0.64553    1.000
    Si4654   Si       0.90092    0.13331    0.63681    1.000
    N4655    N        0.88163    0.14731    0.74282    1.000
    Si4656   Si       0.94278    0.16999    0.67984    1.000
    N4657    N        0.93919    0.13744    0.71042    1.000
    N4658    N        0.93460    0.16165    0.63848    1.000
    Si4659   Si       0.92535    0.14712    0.75083    1.000
    N4660    N        0.81405    0.15547    0.76473    1.000
    Si4661   Si       0.78372    0.13850    0.79142    1.000
    N4662    N        0.75325    0.16978    0.78819    1.000
    N4663    N        0.85677    0.17009    0.83907    1.000
    N4664    N        0.79521    0.13163    0.83255    1.000
    Si4665   Si       0.84045    0.12882    0.83750    1.000
    Si4666   Si       0.84826    0.12466    0.75944    1.000
    N4667    N        0.91826    0.13784    0.85697    1.000
    Si4668   Si       0.88985    0.16921    0.86905    1.000
    N4669    N        0.94235    0.12939    0.78648    1.000
    N4670    N        0.80165    0.17474    0.94016    1.000
    N4671    N        0.82883    0.13867    0.98566    1.000
    Si4672   Si       0.78635    0.14503    0.96866    1.000
    Si4673   Si       0.84297    0.18428    0.92763    1.000
    N4674    N        0.86588    0.15554    0.90329    1.000
    N4675    N        0.74019    0.15783    0.95111    1.000
    Si4676   Si       0.89075    0.16145    0.98739    1.000
    N4677    N        0.97011    0.17602    0.87601    1.000
    N4678    N        0.93546    0.17269    0.99305    1.000
    Si4679   Si       0.96709    0.16989    0.96210    1.000
    Si4680   Si       0.95019    0.13739    0.88743    1.000
    N4681    N        0.94769    0.14691    0.92977    1.000
    N4682    N        0.75873    0.21929    0.03858    1.000
    N4683    N        0.75599    0.21147    0.10845    1.000
    N4684    N        0.82333    0.21076    0.00960    1.000
    Si4685   Si       0.78543    0.23536    0.00627    1.000
    N4686    N        0.89622    0.22197    0.01818    1.000
    N4687    N        0.96961    0.23202    0.01092    1.000
    Si4688   Si       0.93689    0.20475    0.01862    1.000
    Si4689   Si       0.93364    0.21829    0.09403    1.000
    Si4690   Si       0.88757    0.19696    0.05748    1.000
    N4691    N        0.89675    0.23725    0.07938    1.000
    N4692    N        0.96979    0.24001    0.08761    1.000
    N4693    N        0.93481    0.18927    0.05987    1.000
    N4694    N        0.77375    0.23445    0.22046    1.000
    N4695    N        0.81210    0.22134    0.15159    1.000
    Si4696   Si       0.83988    0.20621    0.18027    1.000
    Si4697   Si       0.78223    0.19307    0.21033    1.000
    Si4698   Si       0.77916    0.19201    0.13891    1.000
    N4699    N        0.84673    0.24293    0.24808    1.000
    N4700    N        0.90937    0.19863    0.24083    1.000
    Si4701   Si       0.95390    0.18758    0.15165    1.000
    N4702    N        0.87465    0.23005    0.18653    1.000
    N4703    N        0.91460    0.20543    0.13309    1.000
    Si4704   Si       0.95070    0.18536    0.23132    1.000
    N4705    N        0.97554    0.22454    0.15614    1.000
    Si4706   Si       0.88905    0.23271    0.22796    1.000
    N4707    N        0.96030    0.22935    0.21946    1.000
    Si4708   Si       0.80438    0.21590    0.32955    1.000
    N4709    N        0.77746    0.19710    0.35779    1.000
    N4710    N        0.84586    0.21552    0.34221    1.000
    N4711    N        0.79904    0.20091    0.28537    1.000
    Si4712   Si       0.83425    0.20186    0.26118    1.000
    Si4713   Si       0.94309    0.23254    0.33257    1.000
    N4714    N        0.90713    0.20847    0.34027    1.000
    N4715    N        0.97231    0.21834    0.30007    1.000
    N4716    N        0.97288    0.23425    0.36465    1.000
    Si4717   Si       0.78761    0.20060    0.40136    1.000
    N4718    N        0.79504    0.20065    0.46940    1.000
    Si4719   Si       0.82000    0.23940    0.45618    1.000
    Si4720   Si       0.75151    0.20667    0.46708    1.000
    N4721    N        0.85532    0.22139    0.47550    1.000
    N4722    N        0.80250    0.23908    0.41502    1.000
    N4723    N        0.74852    0.19498    0.42346    1.000
    N4724    N        0.92549    0.22682    0.40383    1.000
    N4725    N        0.87519    0.19172    0.40194    1.000
    N4726    N        0.98075    0.22948    0.43923    1.000
    Si4727   Si       0.88625    0.22665    0.37563    1.000
    Si4728   Si       0.94697    0.21787    0.46645    1.000
    Si4729   Si       0.79897    0.19969    0.55555    1.000
    N4730    N        0.76796    0.23729    0.61328    1.000
    N4731    N        0.79217    0.24355    0.55012    1.000
    N4732    N        0.80716    0.18746    0.59524    1.000
    N4733    N        0.86982    0.20588    0.57919    1.000
    N4734    N        0.96272    0.21370    0.50708    1.000
    Si4735   Si       0.90637    0.22947    0.58647    1.000
    N4736    N        0.93349    0.19345    0.57614    1.000
    N4737    N        0.89811    0.19609    0.51767    1.000
    Si4738   Si       0.93728    0.18887    0.53160    1.000
    Si4739   Si       0.77519    0.19379    0.62278    1.000
    N4740    N        0.84335    0.20571    0.71631    1.000
    N4741    N        0.85437    0.20132    0.64816    1.000
    N4742    N        0.77967    0.21213    0.73890    1.000
    Si4743   Si       0.76142    0.20833    0.70009    1.000
    N4744    N        0.78833    0.19904    0.66411    1.000
    N4745    N        0.74040    0.24083    0.67941    1.000
    Si4746   Si       0.82795    0.18594    0.67971    1.000
    N4747    N        0.97644    0.19615    0.68282    1.000
    N4748    N        0.91125    0.23977    0.62902    1.000
    Si4749   Si       0.88818    0.22411    0.66204    1.000
    Si4750   Si       0.88446    0.18929    0.72724    1.000
    N4751    N        0.90703    0.19515    0.68968    1.000
    Si4752   Si       0.83807    0.20975    0.82732    1.000
    N4753    N        0.83752    0.21960    0.78467    1.000
    N4754    N        0.80322    0.22700    0.84435    1.000
    Si4755   Si       0.75141    0.20892    0.77010    1.000
    Si4756   Si       0.81851    0.19716    0.75166    1.000
    N4757    N        0.75298    0.24204    0.79977    1.000
    N4758    N        0.98601    0.20209    0.75619    1.000
    N4759    N        0.86751    0.23515    0.84323    1.000
    Si4760   Si       0.94903    0.22095    0.76791    1.000
    N4761    N        0.93553    0.22541    0.81126    1.000
    Si4762   Si       0.97023    0.23198    0.83949    1.000
    N4763    N        0.92006    0.19304    0.75489    1.000
    Si4764   Si       0.76371    0.19641    0.93859    1.000
    N4765    N        0.76029    0.21860    0.90300    1.000
    N4766    N        0.83602    0.22078    0.90473    1.000
    N4767    N        0.75970    0.22854    0.96975    1.000
    Si4768   Si       0.79914    0.23531    0.88614    1.000
    Si4769   Si       0.86207    0.22401    0.99202    1.000
    N4770    N        0.96882    0.24093    0.88272    1.000
    Si4771   Si       0.87394    0.23348    0.88772    1.000
    N4772    N        0.86879    0.19159    0.96327    1.000
    N4773    N        0.95977    0.21006    0.94249    1.000
    Si4774   Si       0.95121    0.20554    0.90125    1.000
    N4775    N        0.90699    0.20394    0.89006    1.000
    Si4776   Si       0.96576    0.24385    0.96919    1.000
    N4777    N        0.84974    0.27555    0.05064    1.000
    Si4778   Si       0.83814    0.28722    0.01087    1.000
    N4779    N        0.79658    0.27679    0.00454    1.000
    Si4780   Si       0.87635    0.27455    0.08410    1.000
    N4781    N        0.96795    0.29414    0.04825    1.000
    Si4782   Si       0.98183    0.25271    0.04671    1.000
    N4783    N        0.86271    0.26312    0.12746    1.000
    Si4784   Si       0.81053    0.25817    0.22722    1.000
    N4785    N        0.82177    0.27627    0.19034    1.000
    Si4786   Si       0.82314    0.26389    0.14811    1.000
    N4787    N        0.80042    0.29751    0.13196    1.000
    Si4788   Si       0.89496    0.24423    0.14983    1.000
    N4789    N        0.97882    0.29022    0.19167    1.000
    N4790    N        0.92174    0.27291    0.16489    1.000
    Si4791   Si       0.95619    0.25341    0.18360    1.000
    N4792    N        0.78941    0.25622    0.32817    1.000
    Si4793   Si       0.80317    0.28840    0.30326    1.000
    N4794    N        0.79516    0.28524    0.25859    1.000
    N4795    N        0.84774    0.29417    0.29839    1.000
    Si4796   Si       0.74818    0.26311    0.34199    1.000
    Si4797   Si       0.86366    0.28271    0.25933    1.000
    N4798    N        0.92882    0.27371    0.32509    1.000
    Si4799   Si       0.92709    0.28849    0.28431    1.000
    N4800    N        0.97186    0.28966    0.27724    1.000
    Si4801   Si       0.91008    0.29960    0.35500    1.000
    N4802    N        0.90483    0.26488    0.25405    1.000
    N4803    N        0.79630    0.26326    0.48442    1.000
    Si4804   Si       0.78690    0.27889    0.40767    1.000
    Si4805   Si       0.75690    0.27903    0.47492    1.000
    N4806    N        0.75125    0.27983    0.38214    1.000
    N4807    N        0.85253    0.27241    0.44501    1.000
    Si4808   Si       0.85910    0.29141    0.40629    1.000
    N4809    N        0.76491    0.30153    0.43903    1.000
    N4810    N        0.81990    0.30202    0.39262    1.000
    N4811    N        0.97726    0.27935    0.49714    1.000
    N4812    N        0.96287    0.28731    0.42338    1.000
    Si4813   Si       0.87626    0.26023    0.48106    1.000
    N4814    N        0.91887    0.25195    0.46966    1.000
    N4815    N        0.88344    0.26915    0.37795    1.000
    Si4816   Si       0.94870    0.28300    0.46427    1.000
    Si4817   Si       0.96294    0.24862    0.40407    1.000
    Si4818   Si       0.81528    0.27214    0.52372    1.000
    N4819    N        0.85879    0.27021    0.51985    1.000
    N4820    N        0.74921    0.29186    0.56899    1.000
    Si4821   Si       0.75612    0.24980    0.57418    1.000
    N4822    N        0.90829    0.26540    0.56644    1.000
    N4823    N        0.97128    0.25960    0.56311    1.000
    Si4824   Si       0.88020    0.29443    0.54912    1.000
    Si4825   Si       0.94450    0.29566    0.56578    1.000
    Si4826   Si       0.98500    0.24855    0.52416    1.000
    Si4827   Si       0.77076    0.25482    0.65201    1.000
    N4828    N        0.83026    0.27804    0.73795    1.000
    N4829    N        0.80753    0.26481    0.67167    1.000
    Si4830   Si       0.83587    0.25247    0.70385    1.000
    N4831    N        0.76327    0.29956    0.64147    1.000
    N4832    N        0.93990    0.28146    0.67837    1.000
    N4833    N        0.94705    0.25756    0.74544    1.000
    N4834    N        0.87590    0.25648    0.68883    1.000
    Si4835   Si       0.96684    0.27456    0.70967    1.000
    Si4836   Si       0.94058    0.27248    0.63441    1.000
    N4837    N        0.97849    0.25117    0.63180    1.000
    Si4838   Si       0.89855    0.29129    0.68556    1.000
    N4839    N        0.81553    0.28055    0.80224    1.000
    Si4840   Si       0.84439    0.26049    0.77685    1.000
    Si4841   Si       0.78237    0.26510    0.82766    1.000
    N4842    N        0.88690    0.26837    0.78311    1.000
    N4843    N        0.92068    0.27816    0.84582    1.000
    Si4844   Si       0.91738    0.28841    0.75960    1.000
    Si4845   Si       0.95518    0.29550    0.82579    1.000
    Si4846   Si       0.90058    0.24939    0.82082    1.000
    N4847    N        0.79630    0.27769    0.88194    1.000
    N4848    N        0.86141    0.26593    0.97937    1.000
    Si4849   Si       0.98391    0.27492    0.90652    1.000
    Si4850   Si       0.91285    0.29638    0.88420    1.000
    N4851    N        0.93262    0.26964    0.96537    1.000
    N4852    N        0.88850    0.26885    0.90860    1.000
    Si4853   Si       0.89144    0.27756    0.95094    1.000
    N4854    N        0.84214    0.35105    0.09344    1.000
    N4855    N        0.78092    0.34929    0.00069    1.000
    N4856    N        0.84594    0.33034    0.00079    1.000
    N4857    N        0.74403    0.33083    0.10086    1.000
    N4858    N        0.95176    0.35804    0.06779    1.000
    Si4859   Si       0.88612    0.34963    0.08670    1.000
    N4860    N        0.92047    0.32527    0.01201    1.000
    Si4861   Si       0.93436    0.32036    0.05326    1.000
    N4862    N        0.90235    0.30943    0.07821    1.000
    Si4863   Si       0.94616    0.36252    0.11234    1.000
    Si4864   Si       0.82375    0.33414    0.12821    1.000
    Si4865   Si       0.83284    0.31757    0.19594    1.000
    Si4866   Si       0.76130    0.31369    0.13816    1.000
    N4867    N        0.85817    0.31837    0.23440    1.000
    N4868    N        0.85259    0.33648    0.16229    1.000
    Si4869   Si       0.77153    0.31738    0.23862    1.000
    N4870    N        0.79554    0.33843    0.20851    1.000
    N4871    N        0.78953    0.36001    0.13775    1.000
    N4872    N        0.74238    0.33275    0.17231    1.000
    N4873    N        0.91921    0.34738    0.18708    1.000
    N4874    N        0.96228    0.32924    0.13427    1.000
    Si4875   Si       0.94463    0.31181    0.16910    1.000
    N4876    N        0.90410    0.36464    0.12290    1.000
    N4877    N        0.80276    0.32510    0.33050    1.000
    N4878    N        0.76947    0.34491    0.27136    1.000
    Si4879   Si       0.84596    0.33184    0.31927    1.000
    Si4880   Si       0.76187    0.33502    0.31348    1.000
    N4881    N        0.85232    0.36394    0.29204    1.000
    N4882    N        0.87889    0.33087    0.34807    1.000
    N4883    N        0.90958    0.32809    0.27893    1.000
    Si4884   Si       0.87623    0.34655    0.26092    1.000
    N4885    N        0.94096    0.32838    0.36800    1.000
    N4886    N        0.96540    0.36074    0.25477    1.000
    Si4887   Si       0.80188    0.33728    0.37522    1.000
    Si4888   Si       0.77323    0.34357    0.44314    1.000
    N4889    N        0.76539    0.34780    0.39827    1.000
    N4890    N        0.86370    0.33392    0.48917    1.000
    Si4891   Si       0.96227    0.35264    0.47368    1.000
    N4892    N        0.92999    0.32085    0.47154    1.000
    N4893    N        0.96085    0.35973    0.42952    1.000
    N4894    N        0.87968    0.32864    0.41713    1.000
    Si4895   Si       0.87314    0.35478    0.38349    1.000
    Si4896   Si       0.96886    0.32582    0.40362    1.000
    Si4897   Si       0.89266    0.34017    0.45969    1.000
    Si4898   Si       0.81488    0.33747    0.56338    1.000
    N4899    N        0.77404    0.34847    0.57551    1.000
    Si4900   Si       0.75901    0.32068    0.53873    1.000
    N4901    N        0.85082    0.31537    0.57434    1.000
    N4902    N        0.80096    0.31447    0.52786    1.000
    Si4903   Si       0.75238    0.31945    0.60489    1.000
    Si4904   Si       0.86152    0.32748    0.61461    1.000
    Si4905   Si       0.82384    0.34068    0.49898    1.000
    N4906    N        0.73956    0.31137    0.50130    1.000
    Si4907   Si       0.95089    0.35196    0.61178    1.000
    N4908    N        0.97621    0.32540    0.55609    1.000
    N4909    N        0.91209    0.32221    0.54497    1.000
    N4910    N        0.94127    0.30792    0.60825    1.000
    Si4911   Si       0.80169    0.30758    0.66100    1.000
    N4912    N        0.79392    0.32638    0.69854    1.000
    N4913    N        0.82090    0.33302    0.63134    1.000
    Si4914   Si       0.81416    0.32037    0.73682    1.000
    Si4915   Si       0.91601    0.35331    0.72705    1.000
    N4916    N        0.88306    0.31584    0.65171    1.000
    Si4917   Si       0.99039    0.35072    0.73546    1.000
    N4918    N        0.90511    0.31096    0.72514    1.000
    Si4919   Si       0.89490    0.35800    0.65509    1.000
    N4920    N        0.84168    0.34260    0.80863    1.000
    Si4921   Si       0.80289    0.32207    0.80312    1.000
    N4922    N        0.78223    0.33045    0.76515    1.000
    Si4923   Si       0.74848    0.35718    0.75246    1.000
    Si4924   Si       0.86252    0.35011    0.84721    1.000
    N4925    N        0.76993    0.31005    0.82972    1.000
    N4926    N        0.97096    0.33373    0.83891    1.000
    N4927    N        0.93917    0.31262    0.78840    1.000
    Si4928   Si       0.95436    0.35148    0.80134    1.000
    Si4929   Si       0.78882    0.31549    0.90024    1.000
    N4930    N        0.74665    0.32806    0.89118    1.000
    N4931    N        0.78850    0.30639    0.94317    1.000
    Si4932   Si       0.77479    0.30818    0.98443    1.000
    N4933    N        0.80369    0.35836    0.89204    1.000
    Si4934   Si       0.89553    0.35106    0.91775    1.000
    Si4935   Si       0.96420    0.34457    0.91947    1.000
    N4936    N        0.89818    0.32158    0.95101    1.000
    Si4937   Si       0.93845    0.31124    0.97421    1.000
    Si4938   Si       0.88570    0.34068    0.99043    1.000
    N4939    N        0.88745    0.33199    0.87850    1.000
    N4940    N        0.97213    0.33431    0.96111    1.000
    N4941    N        0.95046    0.30480    0.90379    1.000
    N4942    N        0.82627    0.39060    0.03351    1.000
    Si4943   Si       0.84449    0.39288    0.07408    1.000
    N4944    N        0.80144    0.40559    0.09301    1.000
    Si4945   Si       0.78718    0.41129    0.05117    1.000
    Si4946   Si       0.75184    0.37929    0.01438    1.000
    N4947    N        0.75724    0.37793    0.05715    1.000
    Si4948   Si       0.76404    0.37116    0.09847    1.000
    Si4949   Si       0.82172    0.36497    0.99828    1.000
    N4950    N        0.76906    0.41887    0.01052    1.000
    Si4951   Si       0.97711    0.37870    0.04035    1.000
    Si4952   Si       0.90819    0.40136    0.02439    1.000
    N4953    N        0.88769    0.38199    0.05883    1.000
    N4954    N        0.95094    0.40302    0.01343    1.000
    N4955    N        0.74236    0.38845    0.19902    1.000
    N4956    N        0.74433    0.40232    0.12491    1.000
    N4957    N        0.80107    0.40287    0.17893    1.000
    Si4958   Si       0.77510    0.36507    0.17976    1.000
    Si4959   Si       0.78737    0.41112    0.13749    1.000
    N4960    N        0.89983    0.38137    0.24630    1.000
    N4961    N        0.95635    0.40917    0.20925    1.000
    Si4962   Si       0.88608    0.36279    0.16222    1.000
    Si4963   Si       0.91967    0.38804    0.20805    1.000
    N4964    N        0.88835    0.40475    0.18004    1.000
    N4965    N        0.96974    0.39476    0.13015    1.000
    N4966    N        0.79710    0.40279    0.30679    1.000
    Si4967   Si       0.83825    0.40280    0.28644    1.000
    Si4968   Si       0.78375    0.38610    0.26913    1.000
    N4969    N        0.74722    0.40697    0.26427    1.000
    N4970    N        0.77935    0.41222    0.37153    1.000
    N4971    N        0.81788    0.40622    0.24734    1.000
    N4972    N        0.92430    0.38676    0.31486    1.000
    N4973    N        0.96985    0.39039    0.36522    1.000
    Si4974   Si       0.93256    0.36920    0.35366    1.000
    Si4975   Si       0.92913    0.36720    0.27602    1.000
    N4976    N        0.83163    0.36905    0.38048    1.000
    Si4977   Si       0.75204    0.39020    0.39635    1.000
    N4978    N        0.85003    0.41529    0.48590    1.000
    Si4979   Si       0.81925    0.40802    0.38939    1.000
    Si4980   Si       0.81383    0.40402    0.46491    1.000
    N4981    N        0.78238    0.41915    0.48959    1.000
    Si4982   Si       0.74485    0.40406    0.47071    1.000
    N4983    N        0.74948    0.41894    0.43192    1.000
    N4984    N        0.80918    0.36023    0.46146    1.000
    N4985    N        0.90489    0.38636    0.38332    1.000
    N4986    N        0.90247    0.38143    0.45245    1.000
    Si4987   Si       0.88904    0.42042    0.46546    1.000
    Si4988   Si       0.93003    0.38768    0.41964    1.000
    Si4989   Si       0.76941    0.39250    0.57894    1.000
    N4990    N        0.80479    0.39952    0.60425    1.000
    Si4991   Si       0.84914    0.40426    0.52852    1.000
    N4992    N        0.82714    0.36876    0.53358    1.000
    N4993    N        0.75432    0.42051    0.54860    1.000
    Si4994   Si       0.89163    0.39599    0.58688    1.000
    N4995    N        0.94695    0.37859    0.50742    1.000
    N4996    N        0.88875    0.39128    0.54333    1.000
    N4997    N        0.93214    0.37779    0.58282    1.000
    N4998    N        0.87362    0.36948    0.61761    1.000
    N4999    N        0.99113    0.36634    0.60812    1.000
    Si5000   Si       0.92345    0.36377    0.54135    1.000
    Si5001   Si       0.78642    0.36880    0.69474    1.000
    Si5002   Si       0.80910    0.37420    0.63933    1.000
    N5003    N        0.76938    0.37204    0.65459    1.000
    N5004    N        0.82329    0.38871    0.67841    1.000
    Si5005   Si       0.85350    0.38992    0.70889    1.000
    N5006    N        0.76097    0.38910    0.72356    1.000
    Si5007   Si       0.74303    0.40704    0.64573    1.000
    N5008    N        0.83977    0.35757    0.73874    1.000
    N5009    N        0.89040    0.37252    0.69544    1.000
    N5010    N        0.95481    0.36808    0.71777    1.000
    N5011    N        0.93466    0.36622    0.65115    1.000
    Si5012   Si       0.94901    0.39267    0.68142    1.000
    N5013    N        0.98481    0.40988    0.66268    1.000
    Si5014   Si       0.75766    0.40503    0.81394    1.000
    N5015    N        0.75336    0.40116    0.85790    1.000
    Si5016   Si       0.85894    0.36859    0.77678    1.000
    N5017    N        0.86331    0.40946    0.79442    1.000
    N5018    N        0.79909    0.40819    0.80565    1.000
    N5019    N        0.86032    0.39044    0.86119    1.000
    N5020    N        0.93364    0.38704    0.81676    1.000
    Si5021   Si       0.90602    0.40794    0.78832    1.000
    N5022    N        0.90195    0.37023    0.76557    1.000
    N5023    N        0.75610    0.39423    0.92885    1.000
    Si5024   Si       0.83479    0.38897    0.89746    1.000
    N5025    N        0.81943    0.39585    0.96570    1.000
    Si5026   Si       0.76229    0.37187    0.88909    1.000
    Si5027   Si       0.86161    0.40413    0.96053    1.000
    N5028    N        0.86618    0.37950    0.92578    1.000
    Si5029   Si       0.79045    0.41879    0.94299    1.000
    Si5030   Si       0.94388    0.41630    0.90768    1.000
    N5031    N        0.88578    0.38379    0.99064    1.000
    N5032    N        0.93222    0.37456    0.91324    1.000
    N5033    N        0.79191    0.45491    0.05585    1.000
    Si5034   Si       0.81629    0.45019    0.09239    1.000
    N5035    N        0.85744    0.43267    0.08885    1.000
    Si5036   Si       0.78799    0.45968    0.00311    1.000
    Si5037   Si       0.89743    0.44509    0.07555    1.000
    N5038    N        0.89237    0.44160    0.03034    1.000
    N5039    N        0.93747    0.43280    0.08452    1.000
    Si5040   Si       0.87012    0.46401    0.00140    1.000
    Si5041   Si       0.97789    0.42476    0.09667    1.000
    N5042    N        0.79529    0.45324    0.13173    1.000
    N5043    N        0.76948    0.45212    0.21879    1.000
    N5044    N        0.83920    0.45817    0.20125    1.000
    Si5045   Si       0.80770    0.43011    0.21046    1.000
    N5046    N        0.95973    0.46646    0.16417    1.000
    Si5047   Si       0.95213    0.45253    0.20510    1.000
    Si5048   Si       0.87888    0.44618    0.18495    1.000
    N5049    N        0.88787    0.47762    0.15419    1.000
    N5050    N        0.90934    0.46202    0.21434    1.000
    N5051    N        0.98160    0.47235    0.22825    1.000
    N5052    N        0.80956    0.46767    0.33192    1.000
    Si5053   Si       0.78366    0.43283    0.33514    1.000
    Si5054   Si       0.85397    0.45729    0.33706    1.000
    N5055    N        0.85183    0.43041    0.37324    1.000
    N5056    N        0.86594    0.43095    0.30500    1.000
    N5057    N        0.93384    0.45259    0.28531    1.000
    N5058    N        0.90742    0.45183    0.35002    1.000
    N5059    N        0.97121    0.46558    0.36058    1.000
    Si5060   Si       0.90975    0.42877    0.31173    1.000
    Si5061   Si       0.84282    0.46169    0.42653    1.000
    Si5062   Si       0.77376    0.45277    0.42119    1.000
    N5063    N        0.81185    0.42849    0.42802    1.000
    N5064    N        0.74871    0.46733    0.38673    1.000
    N5065    N        0.92715    0.43822    0.47990    1.000
    N5066    N        0.93995    0.43034    0.41184    1.000
    Si5067   Si       0.89604    0.42955    0.38829    1.000
    Si5068   Si       0.93686    0.45952    0.44282    1.000
    Si5069   Si       0.97268    0.43037    0.38367    1.000
    N5070    N        0.98260    0.46993    0.44823    1.000
    N5071    N        0.88244    0.44212    0.42885    1.000
    Si5072   Si       0.78702    0.44037    0.52734    1.000
    Si5073   Si       0.83129    0.43390    0.59159    1.000
    N5074    N        0.81654    0.47027    0.60907    1.000
    N5075    N        0.82507    0.43325    0.54883    1.000
    N5076    N        0.87406    0.43562    0.59387    1.000
    N5077    N        0.97442    0.44141    0.53851    1.000
    Si5078   Si       0.89097    0.47500    0.60562    1.000
    Si5079   Si       0.96096    0.47720    0.55873    1.000
    N5080    N        0.93105    0.47691    0.59108    1.000
    Si5081   Si       0.95984    0.41920    0.50141    1.000
    N5082    N        0.76732    0.43703    0.66798    1.000
    Si5083   Si       0.83205    0.46326    0.72082    1.000
    Si5084   Si       0.79696    0.46827    0.64905    1.000
    N5085    N        0.86068    0.43001    0.72047    1.000
    N5086    N        0.79458    0.44711    0.73936    1.000
    Si5087   Si       0.76294    0.43293    0.71345    1.000
    N5088    N        0.82657    0.47672    0.67903    1.000
    N5089    N        0.92996    0.42906    0.69406    1.000
    Si5090   Si       0.90344    0.44434    0.72396    1.000
    Si5091   Si       0.98512    0.45276    0.66957    1.000
    N5092    N        0.95449    0.47884    0.65437    1.000
    Si5093   Si       0.78353    0.45952    0.77904    1.000
    N5094    N        0.85304    0.45492    0.85100    1.000
    Si5095   Si       0.83425    0.43139    0.81844    1.000
    N5096    N        0.81928    0.46841    0.80190    1.000
    N5097    N        0.91938    0.44223    0.76377    1.000
    N5098    N        0.91347    0.44551    0.83210    1.000
    N5099    N        0.97727    0.43786    0.79750    1.000
    Si5100   Si       0.95367    0.46808    0.77693    1.000
    Si5101   Si       0.88574    0.42613    0.86056    1.000
    N5102    N        0.96742    0.42443    0.87012    1.000
    Si5103   Si       0.95145    0.42408    0.83061    1.000
    N5104    N        0.81797    0.42812    0.90799    1.000
    Si5105   Si       0.83027    0.46668    0.88761    1.000
    N5106    N        0.78490    0.46031    0.95693    1.000
    Si5107   Si       0.89025    0.46567    0.92879    1.000
    Si5108   Si       0.96753    0.43483    0.98810    1.000
    N5109    N        0.87645    0.44325    0.96327    1.000
    N5110    N        0.90476    0.43706    0.89909    1.000
    N5111    N        0.96468    0.43404    0.94231    1.000
    N5112    N        0.95865    0.47872    0.99668    1.000
    N5113    N        0.78412    0.52590    0.05985    1.000
    N5114    N        0.83049    0.49480    0.09768    1.000
    N5115    N        0.75855    0.49174    0.00972    1.000
    Si5116   Si       0.76309    0.48753    0.05342    1.000
    Si5117   Si       0.82229    0.53160    0.07658    1.000
    Si5118   Si       0.85227    0.52201    0.00643    1.000
    N5119    N        0.82929    0.47917    0.99841    1.000
    Si5120   Si       0.93589    0.51086    0.08177    1.000
    N5121    N        0.97292    0.50515    0.05899    1.000
    Si5122   Si       0.97741    0.51445    0.01635    1.000
    N5123    N        0.89945    0.48693    0.08899    1.000
    Si5124   Si       0.86918    0.49835    0.11986    1.000
    N5125    N        0.89078    0.50430    0.00062    1.000
    Si5126   Si       0.76346    0.49328    0.23446    1.000
    Si5127   Si       0.80100    0.49621    0.13343    1.000
    Si5128   Si       0.83343    0.50048    0.20192    1.000
    N5129    N        0.83059    0.51257    0.15961    1.000
    N5130    N        0.76240    0.51316    0.13409    1.000
    N5131    N        0.79529    0.51792    0.21694    1.000
    N5132    N        0.94474    0.52125    0.12318    1.000
    Si5133   Si       0.92890    0.49597    0.15465    1.000
    Si5134   Si       0.90751    0.50454    0.22092    1.000
    N5135    N        0.86531    0.52125    0.22046    1.000
    N5136    N        0.93008    0.52366    0.18757    1.000
    N5137    N        0.82865    0.50886    0.27393    1.000
    Si5138   Si       0.79688    0.49906    0.29995    1.000
    Si5139   Si       0.81960    0.50601    0.35636    1.000
    N5140    N        0.75844    0.49017    0.27901    1.000
    N5141    N        0.79157    0.52841    0.33167    1.000
    N5142    N        0.86210    0.50115    0.33953    1.000
    N5143    N        0.93823    0.51531    0.32459    1.000
    N5144    N        0.92984    0.51606    0.25739    1.000
    Si5145   Si       0.94987    0.49158    0.28828    1.000
    Si5146   Si       0.87889    0.53226    0.36575    1.000
    Si5147   Si       0.93213    0.48621    0.35533    1.000
    Si5148   Si       0.80201    0.49689    0.48144    1.000
    N5149    N        0.82455    0.49058    0.39891    1.000
    Si5150   Si       0.76068    0.52915    0.43051    1.000
    N5151    N        0.77608    0.48877    0.44700    1.000
    N5152    N        0.84221    0.48814    0.46187    1.000
    Si5153   Si       0.82828    0.52773    0.42056    1.000
    N5154    N        0.91399    0.51289    0.38437    1.000
    Si5155   Si       0.92467    0.53164    0.42212    1.000
    Si5156   Si       0.87798    0.51155    0.46953    1.000
    N5157    N        0.91644    0.49903    0.45071    1.000
    N5158    N        0.96941    0.53379    0.42166    1.000
    Si5159   Si       0.83042    0.50900    0.59690    1.000
    Si5160   Si       0.78108    0.52230    0.53431    1.000
    N5161    N        0.80452    0.53513    0.57015    1.000
    Si5162   Si       0.74302    0.52460    0.62023    1.000
    N5163    N        0.78275    0.48216    0.51933    1.000
    N5164    N        0.80775    0.53617    0.50220    1.000
    N5165    N        0.86959    0.50452    0.57888    1.000
    N5166    N        0.93965    0.50712    0.53490    1.000
    Si5167   Si       0.89846    0.52191    0.54961    1.000
    N5168    N        0.87809    0.52599    0.51168    1.000
    Si5169   Si       0.95984    0.49937    0.61714    1.000
    N5170    N        0.99181    0.49143    0.58878    1.000
    N5171    N        0.83252    0.53054    0.63493    1.000
    N5172    N        0.76111    0.49569    0.64570    1.000
    Si5173   Si       0.85219    0.51014    0.66658    1.000
    N5174    N        0.83848    0.49994    0.74470    1.000
    N5175    N        0.85917    0.53929    0.69845    1.000
    Si5176   Si       0.94616    0.52899    0.73242    1.000
    N5177    N        0.96690    0.49081    0.74160    1.000
    N5178    N        0.93591    0.53542    0.68584    1.000
    N5179    N        0.89876    0.48572    0.71024    1.000
    Si5180   Si       0.87733    0.51698    0.73166    1.000
    Si5181   Si       0.91969    0.49543    0.67493    1.000
    N5182    N        0.88627    0.49218    0.64706    1.000
    Si5183   Si       0.80886    0.52130    0.76901    1.000
    N5184    N        0.77217    0.50152    0.76793    1.000
    Si5185   Si       0.83846    0.49912    0.82970    1.000
    N5186    N        0.81546    0.50412    0.86697    1.000
    N5187    N        0.82216    0.53604    0.80720    1.000
    N5188    N        0.90974    0.53117    0.75581    1.000
    Si5189   Si       0.95978    0.52795    0.83897    1.000
    N5190    N        0.94837    0.49814    0.80654    1.000
    N5191    N        0.88097    0.51089    0.81849    1.000
    Si5192   Si       0.91384    0.48706    0.83295    1.000
    N5193    N        0.93159    0.50967    0.86697    1.000
    N5194    N        0.75003    0.52470    0.87671    1.000
    Si5195   Si       0.75264    0.49424    0.94794    1.000
    N5196    N        0.78749    0.51899    0.93484    1.000
    Si5197   Si       0.79474    0.53235    0.89145    1.000
    N5198    N        0.85018    0.48664    0.92247    1.000
    Si5199   Si       0.82049    0.49045    0.95519    1.000
    Si5200   Si       0.86059    0.53292    0.92715    1.000
    N5201    N        0.84019    0.53395    0.96753    1.000
    N5202    N        0.91902    0.49799    0.93767    1.000
    Si5203   Si       0.92900    0.50766    0.97895    1.000
    Si5204   Si       0.92953    0.52519    0.90709    1.000
    N5205    N        0.96613    0.54180    0.92453    1.000
    Si5206   Si       0.76174    0.56140    0.05388    1.000
    N5207    N        0.81345    0.55766    0.11119    1.000
    Si5208   Si       0.78585    0.59109    0.11048    1.000
    N5209    N        0.84551    0.54696    0.04221    1.000
    Si5210   Si       0.85849    0.58747    0.04040    1.000
    N5211    N        0.74515    0.56760    0.01469    1.000
    Si5212   Si       0.89612    0.56983    0.09634    1.000
    N5213    N        0.92030    0.55065    0.06607    1.000
    Si5214   Si       0.92866    0.56881    0.02715    1.000
    N5215    N        0.89081    0.58526    0.01172    1.000
    N5216    N        0.92625    0.58900    0.12223    1.000
    Si5217   Si       0.84019    0.55388    0.14678    1.000
    N5218    N        0.75224    0.58284    0.13490    1.000
    N5219    N        0.75437    0.57798    0.20765    1.000
    N5220    N        0.82121    0.57794    0.17745    1.000
    Si5221   Si       0.79597    0.56168    0.21314    1.000
    N5222    N        0.87577    0.54299    0.12308    1.000
    Si5223   Si       0.95825    0.56156    0.13089    1.000
    N5224    N        0.93560    0.57883    0.23042    1.000
    Si5225   Si       0.95879    0.55556    0.20227    1.000
    N5226    N        0.96697    0.58625    0.16850    1.000
    Si5227   Si       0.76731    0.55820    0.35263    1.000
    Si5228   Si       0.82921    0.58750    0.36643    1.000
    N5229    N        0.81412    0.57160    0.25142    1.000
    Si5230   Si       0.84728    0.54312    0.25559    1.000
    N5231    N        0.78670    0.59345    0.37258    1.000
    N5232    N        0.83765    0.59791    0.32262    1.000
    Si5233   Si       0.88131    0.59139    0.31191    1.000
    N5234    N        0.87963    0.56600    0.27545    1.000
    Si5235   Si       0.92176    0.55766    0.26563    1.000
    N5236    N        0.93953    0.57852    0.30031    1.000
    N5237    N        0.89434    0.56632    0.34589    1.000
    Si5238   Si       0.93680    0.55721    0.33672    1.000
    N5239    N        0.96227    0.57608    0.36940    1.000
    N5240    N        0.83845    0.54573    0.37720    1.000
    N5241    N        0.79710    0.55177    0.43731    1.000
    Si5242   Si       0.80484    0.57191    0.47396    1.000
    N5243    N        0.84702    0.58159    0.48105    1.000
    N5244    N        0.75197    0.53772    0.38816    1.000
    N5245    N        0.94368    0.57053    0.49271    1.000
    Si5246   Si       0.87716    0.58393    0.43794    1.000
    N5247    N        0.91822    0.57398    0.42403    1.000
    N5248    N        0.86852    0.54000    0.43638    1.000
    N5249    N        0.84446    0.57982    0.54961    1.000
    Si5250   Si       0.80728    0.57721    0.57421    1.000
    Si5251   Si       0.84637    0.55290    0.51488    1.000
    Si5252   Si       0.74876    0.58880    0.52432    1.000
    N5253    N        0.74379    0.54502    0.53571    1.000
    N5254    N        0.82236    0.59340    0.61031    1.000
    N5255    N        0.76832    0.56109    0.62378    1.000
    N5256    N        0.98128    0.55745    0.55406    1.000
    N5257    N        0.91002    0.56186    0.56538    1.000
    Si5258   Si       0.94972    0.56603    0.58284    1.000
    Si5259   Si       0.88340    0.59626    0.56317    1.000
    N5260    N        0.95347    0.54273    0.61925    1.000
    Si5261   Si       0.96420    0.53953    0.51651    1.000
    Si5262   Si       0.80842    0.56368    0.64071    1.000
    Si5263   Si       0.83117    0.56819    0.71422    1.000
    N5264    N        0.80330    0.57919    0.68132    1.000
    Si5265   Si       0.95375    0.56434    0.65878    1.000
    N5266    N        0.97254    0.56262    0.73540    1.000
    Si5267   Si       0.83852    0.57602    0.81057    1.000
    Si5268   Si       0.78001    0.58986    0.77065    1.000
    N5269    N        0.74816    0.56440    0.78464    1.000
    N5270    N        0.85245    0.58959    0.84903    1.000
    N5271    N        0.78585    0.57534    0.87041    1.000
    N5272    N        0.80548    0.56074    0.74843    1.000
    N5273    N        0.87349    0.57933    0.78428    1.000
    N5274    N        0.93639    0.56079    0.82140    1.000
    Si5275   Si       0.90068    0.54299    0.79680    1.000
    N5276    N        0.82924    0.55830    0.91111    1.000
    Si5277   Si       0.80801    0.55621    0.95125    1.000
    Si5278   Si       0.82446    0.59010    0.88211    1.000
    N5279    N        0.79376    0.59553    0.95865    1.000
    N5280    N        0.94962    0.54365    0.99672    1.000
    N5281    N        0.94357    0.59001    0.87921    1.000
    Si5282   Si       0.91268    0.59121    0.90829    1.000
    Si5283   Si       0.96404    0.56779    0.95899    1.000
    N5284    N        0.92859    0.59315    0.94869    1.000
    N5285    N        0.89398    0.55056    0.90861    1.000
    Si5286   Si       0.79769    0.63238    0.04586    1.000
    N5287    N        0.76814    0.64373    0.01707    1.000
    N5288    N        0.82886    0.61462    0.02173    1.000
    Si5289   Si       0.85186    0.62968    0.11001    1.000
    N5290    N        0.77732    0.60008    0.06894    1.000
    N5291    N        0.94605    0.61000    0.02949    1.000
    Si5292   Si       0.93135    0.65024    0.02208    1.000
    Si5293   Si       0.98205    0.65782    0.10997    1.000
    Si5294   Si       0.98800    0.61225    0.03794    1.000
    N5295    N        0.86726    0.59958    0.08253    1.000
    N5296    N        0.80551    0.62729    0.12384    1.000
    Si5297   Si       0.81906    0.62079    0.16629    1.000
    N5298    N        0.80857    0.64855    0.19724    1.000
    Si5299   Si       0.80974    0.64901    0.24123    1.000
    N5300    N        0.86099    0.62809    0.15382    1.000
    Si5301   Si       0.94222    0.61998    0.22202    1.000
    N5302    N        0.91764    0.63181    0.18721    1.000
    Si5303   Si       0.93950    0.61894    0.15165    1.000
    N5304    N        0.98446    0.62658    0.21844    1.000
    N5305    N        0.78329    0.62854    0.27070    1.000
    N5306    N        0.84484    0.63300    0.26526    1.000
    Si5307   Si       0.81748    0.60318    0.28245    1.000
    Si5308   Si       0.74711    0.65228    0.27393    1.000
    N5309    N        0.92654    0.64219    0.25669    1.000
    Si5310   Si       0.94208    0.62497    0.29395    1.000
    N5311    N        0.90038    0.63036    0.31152    1.000
    N5312    N        0.98609    0.62384    0.28717    1.000
    N5313    N        0.78224    0.59930    0.49726    1.000
    Si5314   Si       0.79541    0.63942    0.48950    1.000
    Si5315   Si       0.76476    0.62732    0.39188    1.000
    Si5316   Si       0.83165    0.64295    0.41225    1.000
    N5317    N        0.81682    0.64111    0.45363    1.000
    N5318    N        0.84920    0.60470    0.40613    1.000
    N5319    N        0.74153    0.63904    0.42753    1.000
    Si5320   Si       0.86358    0.62121    0.49546    1.000
    Si5321   Si       0.93619    0.60918    0.47173    1.000
    N5322    N        0.91669    0.63044    0.38257    1.000
    N5323    N        0.96356    0.61546    0.43691    1.000
    N5324    N        0.89280    0.61940    0.46289    1.000
    Si5325   Si       0.94303    0.60221    0.40042    1.000
    N5326    N        0.83158    0.64789    0.51354    1.000
    N5327    N        0.77036    0.60211    0.56437    1.000
    N5328    N        0.95538    0.61138    0.58900    1.000
    N5329    N        0.88461    0.61960    0.59920    1.000
    N5330    N        0.89302    0.62230    0.52995    1.000
    Si5331   Si       0.92538    0.62470    0.61653    1.000
    N5332    N        0.95266    0.64013    0.50256    1.000
    Si5333   Si       0.84863    0.62740    0.62047    1.000
    N5334    N        0.76707    0.61879    0.73855    1.000
    N5335    N        0.84702    0.60778    0.72511    1.000
    Si5336   Si       0.77720    0.61044    0.69659    1.000
    N5337    N        0.79685    0.64556    0.67758    1.000
    Si5338   Si       0.83758    0.63803    0.69398    1.000
    N5339    N        0.86524    0.62599    0.66293    1.000
    Si5340   Si       0.90536    0.61831    0.68148    1.000
    Si5341   Si       0.95557    0.60292    0.74199    1.000
    N5342    N        0.93191    0.60181    0.65209    1.000
    N5343    N        0.98668    0.62916    0.72758    1.000
    N5344    N        0.91507    0.59859    0.72372    1.000
    N5345    N        0.80890    0.60590    0.79984    1.000
    Si5346   Si       0.80831    0.64504    0.81793    1.000
    N5347    N        0.77558    0.65317    0.84703    1.000
    Si5348   Si       0.87651    0.62790    0.85278    1.000
    N5349    N        0.91343    0.62711    0.83260    1.000
    N5350    N        0.95444    0.62054    0.78111    1.000
    Si5351   Si       0.92174    0.64756    0.79520    1.000
    N5352    N        0.89423    0.64422    0.76313    1.000
    Si5353   Si       0.88291    0.60437    0.75128    1.000
    N5354    N        0.98813    0.61820    0.83755    1.000
    Si5355   Si       0.94700    0.59990    0.83934    1.000
    N5356    N        0.86090    0.61815    0.95750    1.000
    N5357    N        0.81972    0.63171    0.90076    1.000
    Si5358   Si       0.82221    0.62359    0.97894    1.000
    N5359    N        0.75079    0.63988    0.90989    1.000
    Si5360   Si       0.85610    0.64460    0.92180    1.000
    Si5361   Si       0.75436    0.60787    0.93966    1.000
    Si5362   Si       0.78630    0.65659    0.88920    1.000
    Si5363   Si       0.90019    0.61062    0.97619    1.000
    N5364    N        0.91999    0.65034    0.97942    1.000
    N5365    N        0.88573    0.62419    0.89717    1.000
    Si5366   Si       0.80971    0.70986    0.06131    1.000
    N5367    N        0.80004    0.66985    0.07274    1.000
    N5368    N        0.80709    0.70802    0.01806    1.000
    Si5369   Si       0.77903    0.66299    0.11137    1.000
    N5370    N        0.87166    0.66564    0.09742    1.000
    N5371    N        0.90081    0.68257    0.03346    1.000
    Si5372   Si       0.88054    0.69975    0.06766    1.000
    N5373    N        0.96299    0.68117    0.02360    1.000
    N5374    N        0.91706    0.71101    0.09021    1.000
    Si5375   Si       0.90623    0.68171    0.12098    1.000
    Si5376   Si       0.93045    0.71226    0.01978    1.000
    N5377    N        0.94116    0.65508    0.12343    1.000
    N5378    N        0.75299    0.69077    0.19267    1.000
    Si5379   Si       0.79383    0.68575    0.17920    1.000
    Si5380   Si       0.84540    0.70229    0.22241    1.000
    N5381    N        0.79074    0.69562    0.13604    1.000
    N5382    N        0.87298    0.66963    0.22083    1.000
    N5383    N        0.88586    0.69175    0.16087    1.000
    N5384    N        0.97156    0.68922    0.24293    1.000
    Si5385   Si       0.88192    0.65597    0.18185    1.000
    N5386    N        0.75574    0.69429    0.28635    1.000
    N5387    N        0.80943    0.69241    0.24881    1.000
    N5388    N        0.76842    0.71880    0.35546    1.000
    N5389    N        0.94855    0.67465    0.30688    1.000
    N5390    N        0.89080    0.69070    0.28360    1.000
    Si5391   Si       0.93508    0.68959    0.26680    1.000
    N5392    N        0.90938    0.69449    0.36050    1.000
    Si5393   Si       0.90790    0.67398    0.32275    1.000
    Si5394   Si       0.88229    0.65289    0.26396    1.000
    N5395    N        0.76489    0.70633    0.42786    1.000
    Si5396   Si       0.78638    0.70041    0.39035    1.000
    N5397    N        0.76048    0.66547    0.48721    1.000
    N5398    N        0.85913    0.67455    0.40176    1.000
    Si5399   Si       0.74194    0.67592    0.44916    1.000
    N5400    N        0.79565    0.65755    0.38943    1.000
    Si5401   Si       0.89935    0.70705    0.46822    1.000
    N5402    N        0.91675    0.68537    0.43302    1.000
    Si5403   Si       0.90186    0.66756    0.39597    1.000
    Si5404   Si       0.95152    0.71023    0.43616    1.000
    Si5405   Si       0.82869    0.69974    0.59068    1.000
    Si5406   Si       0.85274    0.68531    0.52532    1.000
    Si5407   Si       0.75292    0.70192    0.58928    1.000
    N5408    N        0.79150    0.71173    0.57191    1.000
    N5409    N        0.86310    0.68827    0.56684    1.000
    Si5410   Si       0.90255    0.69032    0.58867    1.000
    N5411    N        0.93206    0.67845    0.55701    1.000
    Si5412   Si       0.97126    0.69077    0.57025    1.000
    N5413    N        0.88812    0.68247    0.50132    1.000
    Si5414   Si       0.91708    0.65625    0.52349    1.000
    N5415    N        0.82362    0.66565    0.61654    1.000
    N5416    N        0.75273    0.68425    0.62938    1.000
    N5417    N        0.85014    0.67586    0.71205    1.000
    Si5418   Si       0.79188    0.67652    0.64807    1.000
    N5419    N        0.80777    0.71237    0.66878    1.000
    Si5420   Si       0.83160    0.71320    0.70595    1.000
    Si5421   Si       0.93708    0.67972    0.66384    1.000
    Si5422   Si       0.98922    0.67185    0.71001    1.000
    N5423    N        0.96539    0.69570    0.73784    1.000
    Si5424   Si       0.88877    0.67232    0.72915    1.000
    N5425    N        0.98033    0.66556    0.66749    1.000
    N5426    N        0.90083    0.71173    0.73832    1.000
    N5427    N        0.92162    0.66981    0.62333    1.000
    N5428    N        0.91467    0.65942    0.69392    1.000
    N5429    N        0.80175    0.67683    0.78861    1.000
    Si5430   Si       0.85963    0.70297    0.83856    1.000
    N5431    N        0.84566    0.65905    0.83755    1.000
    Si5432   Si       0.81456    0.71853    0.78561    1.000
    Si5433   Si       0.97559    0.70022    0.77968    1.000
    N5434    N        0.93907    0.68767    0.80144    1.000
    N5435    N        0.89745    0.70653    0.85759    1.000
    N5436    N        0.79055    0.69790    0.90947    1.000
    Si5437   Si       0.82354    0.69875    0.94055    1.000
    N5438    N        0.75082    0.69254    0.97182    1.000
    N5439    N        0.81427    0.66466    0.96601    1.000
    N5440    N        0.86171    0.68706    0.91991    1.000
    Si5441   Si       0.75224    0.71085    0.93367    1.000
    Si5442   Si       0.78357    0.67827    0.99423    1.000
    N5443    N        0.98342    0.66981    0.95754    1.000
    Si5444   Si       0.89360    0.71187    0.90102    1.000
    Si5445   Si       0.94005    0.67852    0.95470    1.000
    N5446    N        0.93469    0.69339    0.91468    1.000
    N5447    N        0.78357    0.73828    0.08142    1.000
    Si5448   Si       0.76712    0.76051    0.04809    1.000
    Si5449   Si       0.84893    0.76782    0.09412    1.000
    N5450    N        0.84875    0.73058    0.06888    1.000
    Si5451   Si       0.82748    0.74384    0.00095    1.000
    Si5452   Si       0.79073    0.73665    0.12535    1.000
    N5453    N        0.86708    0.75526    0.00655    1.000
    N5454    N        0.93561    0.75417    0.03384    1.000
    Si5455   Si       0.92199    0.75041    0.10574    1.000
    Si5456   Si       0.96934    0.77193    0.05341    1.000
    N5457    N        0.95725    0.77171    0.09560    1.000
    N5458    N        0.82879    0.75783    0.13112    1.000
    Si5459   Si       0.75093    0.73644    0.19154    1.000
    N5460    N        0.75387    0.74114    0.23431    1.000
    N5461    N        0.78001    0.75480    0.16571    1.000
    Si5462   Si       0.82351    0.75871    0.17668    1.000
    Si5463   Si       0.84047    0.77298    0.25229    1.000
    N5464    N        0.82400    0.71610    0.18890    1.000
    N5465    N        0.92707    0.73621    0.14558    1.000
    Si5466   Si       0.94781    0.75356    0.24135    1.000
    N5467    N        0.86918    0.76623    0.18220    1.000
    Si5468   Si       0.95787    0.74169    0.17766    1.000
    N5469    N        0.92698    0.73526    0.20764    1.000
    Si5470   Si       0.89627    0.73153    0.17548    1.000
    N5471    N        0.74445    0.76117    0.30098    1.000
    N5472    N        0.80384    0.75874    0.27766    1.000
    Si5473   Si       0.78297    0.72189    0.26106    1.000
    Si5474   Si       0.74341    0.72063    0.31809    1.000
    N5475    N        0.86328    0.73650    0.24323    1.000
    N5476    N        0.86728    0.76759    0.29884    1.000
    Si5477   Si       0.95919    0.75172    0.31022    1.000
    Si5478   Si       0.88681    0.73507    0.27932    1.000
    N5479    N        0.93278    0.73649    0.27827    1.000
    N5480    N        0.93193    0.76205    0.34205    1.000
    Si5481   Si       0.80597    0.76730    0.38030    1.000
    Si5482   Si       0.76254    0.74875    0.43902    1.000
    N5483    N        0.81863    0.72952    0.39796    1.000
    N5484    N        0.79225    0.75420    0.47078    1.000
    Si5485   Si       0.83479    0.74480    0.47879    1.000
    Si5486   Si       0.85451    0.71620    0.41300    1.000
    Si5487   Si       0.98223    0.77393    0.41318    1.000
    N5488    N        0.86193    0.72461    0.45367    1.000
    N5489    N        0.88324    0.74680    0.39262    1.000
    N5490    N        0.95411    0.73934    0.40461    1.000
    N5491    N        0.93476    0.73553    0.46937    1.000
    Si5492   Si       0.92187    0.73493    0.37413    1.000
    Si5493   Si       0.78603    0.72733    0.52944    1.000
    N5494    N        0.84116    0.73513    0.61307    1.000
    N5495    N        0.78334    0.77013    0.53433    1.000
    N5496    N        0.74355    0.71836    0.51824    1.000
    Si5497   Si       0.74420    0.77104    0.55500    1.000
    N5498    N        0.82642    0.71835    0.51369    1.000
    Si5499   Si       0.87401    0.76029    0.59373    1.000
    N5500    N        0.90772    0.73282    0.59413    1.000
    Si5501   Si       0.94486    0.75521    0.59457    1.000
    N5502    N        0.97775    0.73310    0.57948    1.000
    Si5503   Si       0.83007    0.74470    0.65239    1.000
    N5504    N        0.85693    0.74526    0.68762    1.000
    Si5505   Si       0.76861    0.73568    0.73842    1.000
    N5506    N        0.80934    0.72482    0.74154    1.000
    N5507    N        0.77258    0.77377    0.71780    1.000
    N5508    N        0.95146    0.77308    0.63332    1.000
    Si5509   Si       0.93852    0.72438    0.72025    1.000
    N5510    N        0.94386    0.76362    0.73953    1.000
    N5511    N        0.94315    0.72034    0.67905    1.000
    Si5512   Si       0.97514    0.74769    0.66222    1.000
    N5513    N        0.79100    0.74799    0.80757    1.000
    N5514    N        0.75539    0.72962    0.86194    1.000
    Si5515   Si       0.74795    0.73469    0.81553    1.000
    N5516    N        0.83632    0.73320    0.86270    1.000
    N5517    N        0.85531    0.71944    0.79530    1.000
    N5518    N        0.74004    0.74151    0.77014    1.000
    Si5519   Si       0.88672    0.73658    0.77024    1.000
    N5520    N        0.91417    0.75009    0.80135    1.000
    N5521    N        0.98103    0.74159    0.79541    1.000
    N5522    N        0.96132    0.72537    0.85570    1.000
    Si5523   Si       0.92840    0.71853    0.82925    1.000
    N5524    N        0.87389    0.77239    0.74944    1.000
    N5525    N        0.75343    0.75531    0.93745    1.000
    N5526    N        0.80122    0.77066    0.89711    1.000
    N5527    N        0.81701    0.73849    0.95765    1.000
    Si5528   Si       0.79520    0.73179    0.87844    1.000
    Si5529   Si       0.79553    0.77169    0.94018    1.000
    Si5530   Si       0.96806    0.71525    0.89697    1.000
    N5531    N        0.93185    0.71582    0.97742    1.000
    N5532    N        0.90160    0.75099    0.91536    1.000
    N5533    N        0.96854    0.75179    0.92220    1.000
    Si5534   Si       0.93136    0.74776    0.94885    1.000
    N5535    N        0.84067    0.81045    0.08100    1.000
    Si5536   Si       0.79721    0.81534    0.00298    1.000
    N5537    N        0.79525    0.77462    0.01958    1.000
    N5538    N        0.89534    0.81228    0.03388    1.000
    Si5539   Si       0.88788    0.81365    0.07590    1.000
    N5540    N        0.97539    0.81544    0.04671    1.000
    N5541    N        0.98374    0.82951    0.11704    1.000
    N5542    N        0.88908    0.77515    0.09585    1.000
    Si5543   Si       0.90584    0.77553    0.01062    1.000
    N5544    N        0.81417    0.78342    0.21599    1.000
    Si5545   Si       0.80886    0.82830    0.21177    1.000
    Si5546   Si       0.87008    0.80670    0.19631    1.000
    N5547    N        0.86697    0.80722    0.23929    1.000
    N5548    N        0.96555    0.78382    0.17063    1.000
    Si5549   Si       0.94401    0.81291    0.19593    1.000
    N5550    N        0.94085    0.79641    0.23501    1.000
    N5551    N        0.90589    0.82739    0.17996    1.000
    Si5552   Si       0.97928    0.78772    0.12794    1.000
    Si5553   Si       0.84806    0.79407    0.32640    1.000
    N5554    N        0.77272    0.82622    0.30304    1.000
    Si5555   Si       0.78183    0.78207    0.30672    1.000
    N5556    N        0.84062    0.82949    0.30144    1.000
    N5557    N        0.80874    0.78045    0.34025    1.000
    N5558    N        0.98049    0.78643    0.29365    1.000
    N5559    N        0.87428    0.81066    0.35944    1.000
    Si5560   Si       0.91881    0.80256    0.34792    1.000
    Si5561   Si       0.96734    0.82499    0.30419    1.000
    N5562    N        0.92610    0.83005    0.31573    1.000
    Si5563   Si       0.79454    0.80974    0.42702    1.000
    N5564    N        0.77043    0.81586    0.46903    1.000
    N5565    N        0.83074    0.79568    0.40891    1.000
    N5566    N        0.77001    0.77930    0.40711    1.000
    N5567    N        0.84300    0.78745    0.48386    1.000
    Si5568   Si       0.94758    0.77558    0.48031    1.000
    Si5569   Si       0.99011    0.82342    0.47814    1.000
    N5570    N        0.96317    0.79992    0.44627    1.000
    Si5571   Si       0.93386    0.82280    0.42477    1.000
    N5572    N        0.89455    0.80494    0.43188    1.000
    Si5573   Si       0.87640    0.81089    0.47222    1.000
    Si5574   Si       0.87212    0.78839    0.39814    1.000
    N5575    N        0.93930    0.81265    0.38346    1.000
    Si5576   Si       0.84224    0.80983    0.54921    1.000
    N5577    N        0.82172    0.81245    0.58851    1.000
    N5578    N        0.81169    0.82798    0.52286    1.000
    N5579    N        0.74468    0.81154    0.57418    1.000
    Si5580   Si       0.78232    0.83185    0.58662    1.000
    Si5581   Si       0.79679    0.79342    0.49774    1.000
    Si5582   Si       0.90838    0.80608    0.54036    1.000
    Si5583   Si       0.97221    0.81070    0.54528    1.000
    N5584    N        0.97853    0.79068    0.50719    1.000
    N5585    N        0.94058    0.78585    0.56612    1.000
    N5586    N        0.90903    0.79494    0.49674    1.000
    N5587    N        0.87891    0.79015    0.62462    1.000
    N5588    N        0.87321    0.77898    0.55365    1.000
    Si5589   Si       0.83931    0.80783    0.62929    1.000
    N5590    N        0.74403    0.78014    0.65549    1.000
    N5591    N        0.84046    0.81259    0.71228    1.000
    Si5592   Si       0.77597    0.80829    0.65916    1.000
    Si5593   Si       0.79997    0.80638    0.72499    1.000
    N5594    N        0.81166    0.78444    0.65178    1.000
    N5595    N        0.77839    0.83276    0.69567    1.000
    Si5596   Si       0.91607    0.80032    0.64432    1.000
    N5597    N        0.90656    0.79892    0.68803    1.000
    Si5598   Si       0.87221    0.78057    0.70556    1.000
    Si5599   Si       0.97510    0.78961    0.72417    1.000
    N5600    N        0.97061    0.82487    0.69764    1.000
    N5601    N        0.81255    0.80336    0.76793    1.000
    N5602    N        0.76161    0.81318    0.82039    1.000
    Si5603   Si       0.85543    0.81309    0.75752    1.000
    Si5604   Si       0.79734    0.79138    0.80697    1.000
    N5605    N        0.82339    0.80344    0.84184    1.000
    N5606    N        0.87117    0.81619    0.79833    1.000
    Si5607   Si       0.89897    0.78966    0.81855    1.000
    N5608    N        0.93628    0.80723    0.80524    1.000
    N5609    N        0.88553    0.78394    0.85889    1.000
    N5610    N        0.98178    0.80354    0.76551    1.000
    Si5611   Si       0.95322    0.77302    0.78382    1.000
    Si5612   Si       0.84010    0.77686    0.87629    1.000
    N5613    N        0.80921    0.80716    0.96090    1.000
    N5614    N        0.85616    0.80130    0.91069    1.000
    Si5615   Si       0.84433    0.82705    0.94293    1.000
    Si5616   Si       0.89753    0.79284    0.90069    1.000
    N5617    N        0.87882    0.83178    0.96966    1.000
    Si5618   Si       0.92246    0.82591    0.96122    1.000
    N5619    N        0.92671    0.82217    0.91678    1.000
    N5620    N        0.98311    0.81484    0.88013    1.000
    N5621    N        0.92445    0.78516    0.97343    1.000
    N5622    N        0.77787    0.85504    0.05505    1.000
    Si5623   Si       0.76487    0.86653    0.09395    1.000
    Si5624   Si       0.75263    0.87063    0.02421    1.000
    Si5625   Si       0.81982    0.84667    0.06786    1.000
    N5626    N        0.84200    0.88863    0.06922    1.000
    N5627    N        0.83069    0.83493    0.02139    1.000
    Si5628   Si       0.87160    0.84285    0.01187    1.000
    N5629    N        0.89060    0.88144    0.02087    1.000
    N5630    N        0.96349    0.88339    0.08089    1.000
    Si5631   Si       0.92400    0.88516    0.10221    1.000
    N5632    N        0.91749    0.84246    0.09129    1.000
    Si5633   Si       0.96042    0.83992    0.08183    1.000
    N5634    N        0.80233    0.85486    0.11238    1.000
    N5635    N        0.76888    0.84412    0.20481    1.000
    Si5636   Si       0.82508    0.85918    0.14812    1.000
    Si5637   Si       0.76913    0.88586    0.18958    1.000
    N5638    N        0.82333    0.85619    0.24152    1.000
    N5639    N        0.83830    0.83105    0.17996    1.000
    N5640    N        0.96814    0.84854    0.19968    1.000
    N5641    N        0.86439    0.87468    0.13719    1.000
    Si5642   Si       0.98178    0.88813    0.18719    1.000
    Si5643   Si       0.89616    0.86682    0.16692    1.000
    N5644    N        0.81968    0.85944    0.35537    1.000
    Si5645   Si       0.80650    0.85364    0.31409    1.000
    Si5646   Si       0.85985    0.84154    0.26349    1.000
    N5647    N        0.79597    0.89075    0.29431    1.000
    Si5648   Si       0.86390    0.85243    0.36228    1.000
    Si5649   Si       0.91319    0.87058    0.30635    1.000
    N5650    N        0.88943    0.87297    0.26988    1.000
    N5651    N        0.88540    0.88228    0.34009    1.000
    N5652    N        0.97697    0.85493    0.27427    1.000
    Si5653   Si       0.98835    0.88536    0.30892    1.000
    N5654    N        0.79322    0.85272    0.42449    1.000
    Si5655   Si       0.81707    0.87463    0.39722    1.000
    Si5656   Si       0.76986    0.85819    0.45926    1.000
    N5657    N        0.78647    0.88273    0.49040    1.000
    N5658    N        0.86105    0.86754    0.40444    1.000
    Si5659   Si       0.88670    0.87576    0.43805    1.000
    N5660    N        0.92862    0.86453    0.43278    1.000
    N5661    N        0.87280    0.85477    0.47470    1.000
    Si5662   Si       0.96010    0.88905    0.44934    1.000
    N5663    N        0.97196    0.86115    0.48459    1.000
    N5664    N        0.77932    0.87040    0.56618    1.000
    Si5665   Si       0.80272    0.86909    0.52891    1.000
    N5666    N        0.84207    0.89137    0.52880    1.000
    N5667    N        0.94069    0.83969    0.53708    1.000
    Si5668   Si       0.87742    0.87219    0.51745    1.000
    Si5669   Si       0.95322    0.87769    0.52018    1.000
    N5670    N        0.87626    0.83670    0.54115    1.000
    Si5671   Si       0.81061    0.86924    0.64753    1.000
    N5672    N        0.84733    0.84514    0.65174    1.000
    Si5673   Si       0.84769    0.85388    0.70038    1.000
    N5674    N        0.78121    0.84192    0.63034    1.000
    N5675    N        0.82235    0.88681    0.68795    1.000
    Si5676   Si       0.74282    0.85502    0.70144    1.000
    Si5677   Si       0.88782    0.86356    0.65371    1.000
    N5678    N        0.92686    0.84341    0.74441    1.000
    N5679    N        0.92569    0.84500    0.64208    1.000
    N5680    N        0.98107    0.88556    0.66783    1.000
    N5681    N        0.89299    0.86337    0.69699    1.000
    Si5682   Si       0.89661    0.87425    0.74088    1.000
    Si5683   Si       0.96094    0.87160    0.63244    1.000
    Si5684   Si       0.92761    0.83566    0.69952    1.000
    N5685    N        0.81544    0.86514    0.81446    1.000
    Si5686   Si       0.77617    0.85335    0.83383    1.000
    Si5687   Si       0.82755    0.88295    0.77470    1.000
    Si5688   Si       0.74914    0.88567    0.76870    1.000
    N5689    N        0.74684    0.87788    0.81267    1.000
    Si5690   Si       0.82464    0.88755    0.85292    1.000
    N5691    N        0.78710    0.87557    0.87053    1.000
    N5692    N        0.79041    0.88565    0.75185    1.000
    Si5693   Si       0.84758    0.83656    0.82755    1.000
    N5694    N        0.85669    0.86121    0.75119    1.000
    N5695    N        0.86507    0.86571    0.85484    1.000
    N5696    N        0.95102    0.88091    0.79279    1.000
    N5697    N        0.94318    0.86960    0.85992    1.000
    Si5698   Si       0.97380    0.87940    0.83019    1.000
    Si5699   Si       0.95421    0.83802    0.77981    1.000
    Si5700   Si       0.90368    0.88905    0.85311    1.000
    N5701    N        0.83505    0.86739    0.93282    1.000
    Si5702   Si       0.74883    0.85469    0.95544    1.000
    N5703    N        0.75983    0.83951    0.99451    1.000
    N5704    N        0.76940    0.89277    0.94474    1.000
    Si5705   Si       0.98419    0.87586    0.96419    1.000
    N5706    N        0.98581    0.86586    0.92166    1.000
    Si5707   Si       0.95639    0.84563    0.89541    1.000
    N5708    N        0.94285    0.86260    0.97327    1.000
    N5709    N        0.76385    0.91317    0.01462    1.000
    N5710    N        0.75264    0.90986    0.09210    1.000
    Si5711   Si       0.75602    0.93359    0.05348    1.000
    Si5712   Si       0.85860    0.90598    0.10682    1.000
    N5713    N        0.86527    0.94785    0.02707    1.000
    Si5714   Si       0.87384    0.91011    0.04767    1.000
    N5715    N        0.89740    0.91728    0.08737    1.000
    N5716    N        0.98033    0.94248    0.04126    1.000
    Si5717   Si       0.98572    0.91969    0.07666    1.000
    N5718    N        0.96411    0.94750    0.10599    1.000
    N5719    N        0.92764    0.93097    0.99789    1.000
    N5720    N        0.83894    0.93801    0.12876    1.000
    Si5721   Si       0.81009    0.93472    0.15991    1.000
    N5722    N        0.77374    0.91019    0.22844    1.000
    N5723    N        0.76857    0.94689    0.15151    1.000
    N5724    N        0.84378    0.91954    0.24635    1.000
    N5725    N        0.80796    0.89315    0.17112    1.000
    N5726    N        0.92487    0.89426    0.14529    1.000
    Si5727   Si       0.88567    0.90799    0.24392    1.000
    N5728    N        0.96338    0.92711    0.18981    1.000
    N5729    N        0.89852    0.89314    0.20420    1.000
    Si5730   Si       0.92112    0.92365    0.18014    1.000
    Si5731   Si       0.75835    0.91094    0.30853    1.000
    N5732    N        0.76318    0.94167    0.34014    1.000
    Si5733   Si       0.80654    0.89476    0.25225    1.000
    Si5734   Si       0.75773    0.94954    0.24706    1.000
    N5735    N        0.94502    0.90091    0.30514    1.000
    Si5736   Si       0.89444    0.92231    0.35644    1.000
    Si5737   Si       0.92951    0.94192    0.29787    1.000
    N5738    N        0.90870    0.94134    0.26089    1.000
    Si5739   Si       0.75514    0.91519    0.48476    1.000
    N5740    N        0.81097    0.91750    0.39778    1.000
    Si5741   Si       0.77777    0.94115    0.38064    1.000
    N5742    N        0.78099    0.95281    0.48885    1.000
    Si5743   Si       0.96824    0.92405    0.38345    1.000
    N5744    N        0.92625    0.91663    0.38612    1.000
    Si5745   Si       0.91437    0.93171    0.48312    1.000
    Si5746   Si       0.90476    0.94135    0.41567    1.000
    N5747    N        0.98779    0.90302    0.41561    1.000
    N5748    N        0.95748    0.92811    0.47069    1.000
    N5749    N        0.89258    0.91708    0.44863    1.000
    Si5750   Si       0.83994    0.93203    0.54282    1.000
    Si5751   Si       0.78127    0.90757    0.58896    1.000
    N5752    N        0.79840    0.93377    0.55686    1.000
    Si5753   Si       0.84925    0.92213    0.61534    1.000
    N5754    N        0.74635    0.92453    0.60442    1.000
    N5755    N        0.81354    0.89668    0.61491    1.000
    N5756    N        0.86500    0.93754    0.57862    1.000
    Si5757   Si       0.96182    0.92415    0.58018    1.000
    N5758    N        0.94381    0.90859    0.61784    1.000
    N5759    N        0.91388    0.89724    0.51140    1.000
    N5760    N        0.97662    0.89317    0.55523    1.000
    Si5761   Si       0.78841    0.90076    0.71158    1.000
    Si5762   Si       0.83528    0.93097    0.68238    1.000
    N5763    N        0.80400    0.94192    0.71277    1.000
    N5764    N        0.74900    0.89808    0.69666    1.000
    N5765    N        0.90963    0.91432    0.75020    1.000
    Si5766   Si       0.90819    0.94607    0.72083    1.000
    N5767    N        0.92855    0.93019    0.68334    1.000
    N5768    N        0.88226    0.90557    0.63849    1.000
    Si5769   Si       0.97148    0.92615    0.68345    1.000
    Si5770   Si       0.91628    0.93215    0.64184    1.000
    N5771    N        0.84151    0.92493    0.77668    1.000
    N5772    N        0.84021    0.92582    0.84824    1.000
    Si5773   Si       0.86282    0.93789    0.81417    1.000
    Si5774   Si       0.93025    0.91601    0.78623    1.000
    N5775    N        0.90036    0.91583    0.81713    1.000
    N5776    N        0.99514    0.91720    0.83409    1.000
    Si5777   Si       0.84216    0.90547    0.94814    1.000
    N5778    N        0.83570    0.93633    0.91517    1.000
    Si5779   Si       0.77566    0.92511    0.97385    1.000
    N5780    N        0.82022    0.92847    0.97855    1.000
    N5781    N        0.76785    0.94164    0.89285    1.000
    Si5782   Si       0.76588    0.89706    0.90176    1.000
    Si5783   Si       0.86318    0.93790    0.88252    1.000
    N5784    N        0.99457    0.91688    0.97172    1.000
    N5785    N        0.90200    0.91798    0.88394    1.000
    Si5786   Si       0.98472    0.94571    0.93952    1.000
    N5787    N        0.93994    0.94823    0.93238    1.000
    N5788    N        0.88409    0.90860    0.95855    1.000
    Si5789   Si       0.90715    0.94734    0.96189    1.000
    Si5790   Si       0.91375    0.89219    0.98642    1.000
    N5791    N        0.84569    0.98872    0.07965    1.000
    N5792    N        0.77875    0.96944    0.05984    1.000
    Si5793   Si       0.80525    0.00223    0.07351    1.000
    Si5794   Si       0.85647    0.97764    0.11863    1.000
    Si5795   Si       0.87599    0.98515    0.04833    1.000
    N5796    N        0.91722    0.97374    0.05835    1.000
    Si5797   Si       0.94246    0.96125    0.02512    1.000
    Si5798   Si       0.92194    0.95467    0.09525    1.000
    Si5799   Si       0.82231    0.00678    0.18745    1.000
    Si5800   Si       0.75476    0.97848    0.17526    1.000
    Si5801   Si       0.83292    0.95931    0.23624    1.000
    N5802    N        0.81869    0.96094    0.19496    1.000
    N5803    N        0.85287    0.00246    0.15559    1.000
    N5804    N        0.74103    0.97652    0.21718    1.000
    N5805    N        0.89875    0.97443    0.12523    1.000
    N5806    N        0.86439    0.98869    0.23468    1.000
    Si5807   Si       0.89629    0.99421    0.16338    1.000
    Si5808   Si       0.98997    0.97199    0.13049    1.000
    Si5809   Si       0.90628    0.97542    0.23450    1.000
    N5810    N        0.90279    0.96143    0.19071    1.000
    N5811    N        0.97222    0.98750    0.16760    1.000
    N5812    N        0.94785    0.99445    0.23527    1.000
    N5813    N        0.79742    0.96847    0.26158    1.000
    N5814    N        0.76626    0.00772    0.31271    1.000
    Si5815   Si       0.74367    0.97109    0.31635    1.000
    Si5816   Si       0.79477    0.00880    0.28016    1.000
    N5817    N        0.96705    0.96452    0.29874    1.000
    Si5818   Si       0.88615    0.98449    0.35853    1.000
    Si5819   Si       0.97968    0.98590    0.26197    1.000
    N5820    N        0.90224    0.95370    0.32951    1.000
    N5821    N        0.97027    0.96551    0.36995    1.000
    Si5822   Si       0.99140    0.95341    0.33359    1.000
    Si5823   Si       0.81870    0.97493    0.48316    1.000
    N5824    N        0.80122    0.97755    0.38573    1.000
    N5825    N        0.83786    0.96657    0.44386    1.000
    N5826    N        0.75570    0.00417    0.45872    1.000
    Si5827   Si       0.83386    0.95351    0.40390    1.000
    N5828    N        0.97502    0.99806    0.46899    1.000
    N5829    N        0.90955    0.97466    0.49230    1.000
    Si5830   Si       0.93027    0.00131    0.46119    1.000
    N5831    N        0.87361    0.95375    0.38601    1.000
    N5832    N        0.92666    0.97856    0.42391    1.000
    Si5833   Si       0.98809    0.95883    0.48243    1.000
    Si5834   Si       0.94791    0.99869    0.39049    1.000
    N5835    N        0.76256    0.99237    0.53870    1.000
    N5836    N        0.78148    0.98896    0.61077    1.000
    N5837    N        0.84516    0.96556    0.51670    1.000
    Si5838   Si       0.76992    0.95105    0.53077    1.000
    Si5839   Si       0.87767    0.99410    0.51660    1.000
    Si5840   Si       0.89886    0.96355    0.57910    1.000
    N5841    N        0.88833    1.00000    0.55787    1.000
    Si5842   Si       0.97777    0.98051    0.55537    1.000
    N5843    N        0.93886    0.95775    0.56363    1.000
    N5844    N        0.90564    0.96940    0.62188    1.000
    Si5845   Si       0.74724    0.96499    0.62235    1.000
    Si5846   Si       0.81788    0.99147    0.63691    1.000
    Si5847   Si       0.77713    0.97252    0.69641    1.000
    N5848    N        0.75399    0.98209    0.73316    1.000
    N5849    N        0.75168    0.95499    0.66449    1.000
    N5850    N        0.80192    0.00451    0.67594    1.000
    N5851    N        0.83462    0.95129    0.64333    1.000
    Si5852   Si       0.83392    0.95273    0.74294    1.000
    N5853    N        0.98788    0.00385    0.74340    1.000
    N5854    N        0.91876    0.98790    0.73404    1.000
    Si5855   Si       0.97026    0.00391    0.66221    1.000
    N5856    N        0.98138    0.96143    0.65821    1.000
    N5857    N        0.86471    0.94661    0.71172    1.000
    Si5858   Si       0.75994    0.00258    0.82139    1.000
    N5859    N        0.83566    0.99169    0.76069    1.000
    N5860    N        0.80241    0.99856    0.81605    1.000
    Si5861   Si       0.84393    0.00560    0.80055    1.000
    N5862    N        0.74050    0.96303    0.82942    1.000
    N5863    N        0.87291    0.98061    0.82003    1.000
    Si5864   Si       0.95120    0.99093    0.76492    1.000
    Si5865   Si       0.88594    0.00449    0.85336    1.000
    N5866    N        0.96022    0.94925    0.78187    1.000
    Si5867   Si       0.79684    0.00398    0.96338    1.000
    Si5868   Si       0.84560    0.96257    0.98956    1.000
    N5869    N        0.81914    0.99728    0.92594    1.000
    N5870    N        0.77060    0.96735    0.95648    1.000
    Si5871   Si       0.86146    0.99563    0.92110    1.000
    N5872    N        0.82576    0.99894    0.99513    1.000
    Si5873   Si       0.79873    0.96052    0.91682    1.000
    Si5874   Si       0.74063    0.96877    0.87330    1.000
    Si5875   Si       0.92441    0.95553    0.89103    1.000
    N5876    N        0.88309    0.97691    0.88854    1.000
    N5877    N        0.87571    0.97645    0.95932    1.000
    N5878    N        0.96149    0.97097    0.87442    1.000
    N5879    N        0.93842    0.99483    0.99999    1.000
