# CIF file generated by openbabel 3.1.1, see https://openbabel.org
data_I
_chemical_name_common '3.01-69.aims'
_cell_length_a 39.9276
_cell_length_b 39.9276
_cell_length_c 39.9276
_cell_angle_alpha 90
_cell_angle_beta 90
_cell_angle_gamma 90
loop_
    _atom_site_label
    _atom_site_type_symbol
    _atom_site_fract_x
    _atom_site_fract_y
    _atom_site_fract_z
    _atom_site_occupancy
    N0       N        0.03007    0.04998    0.06928    1.000
    N1       N        0.03721    0.01492    0.00971    1.000
    Si2      Si       0.04236    0.01342    0.05170    1.000
    N3       N        0.11561    0.03185    0.00726    1.000
    N4       N        0.20686    0.03074    0.01550    1.000
    Si5      Si       0.08513    0.04000    0.14441    1.000
    N6       N        0.05849    0.03915    0.18150    1.000
    N7       N        0.10348    0.05454    0.22628    1.000
    Si8      Si       0.07573    0.00896    0.21781    1.000
    N9       N        0.16284    0.02089    0.22147    1.000
    Si10     Si       0.13777    0.05045    0.20012    1.000
    N11      N        0.18232    0.02283    0.14370    1.000
    N12      N        0.12125    0.02968    0.16385    1.000
    Si13     Si       0.17678    0.06531    0.14282    1.000
    N14      N        0.00139    0.05059    0.28937    1.000
    Si15     Si       0.03835    0.05307    0.26592    1.000
    Si16     Si       0.07167    0.05780    0.33273    1.000
    N17      N        0.07898    0.01514    0.33350    1.000
    Si18     Si       0.99663    0.05780    0.33093    1.000
    N19      N        0.03319    0.06340    0.35519    1.000
    N20      N        0.05177    0.01306    0.25316    1.000
    N21      N        0.07118    0.06659    0.29096    1.000
    N22      N        0.13626    0.03729    0.28544    1.000
    N23      N        0.14898    0.03289    0.35025    1.000
    Si24     Si       0.17257    0.02992    0.26493    1.000
    N25      N        0.22205    0.04278    0.34579    1.000
    Si26     Si       0.18857    0.02160    0.36647    1.000
    Si27     Si       0.12217    0.01429    0.32195    1.000
    N28      N        0.19483    0.06537    0.26966    1.000
    Si29     Si       0.02086    0.03301    0.38600    1.000
    N30      N        0.05187    0.03997    0.41746    1.000
    Si31     Si       0.08692    0.02781    0.43871    1.000
    N32      N        0.00901    0.03974    0.47003    1.000
    N33      N        0.99144    0.05969    0.40848    1.000
    Si34     Si       0.02176    0.06587    0.43895    1.000
    N35      N        0.10918    0.06317    0.44697    1.000
    N36      N        0.08300    0.01004    0.47912    1.000
    N37      N        0.22201    0.05645    0.47471    1.000
    N38      N        0.19196    0.03725    0.40889    1.000
    N39      N        0.15720    0.01654    0.46653    1.000
    Si40     Si       0.13209    0.05202    0.48366    1.000
    Si41     Si       0.19281    0.01255    0.44323    1.000
    N42      N        0.02476    0.03600    0.58669    1.000
    Si43     Si       0.07272    0.02793    0.51718    1.000
    Si44     Si       0.01446    0.03615    0.54423    1.000
    N45      N        0.10501    0.05869    0.51649    1.000
    N46      N        0.04379    0.06130    0.52865    1.000
    N47      N        0.12238    0.02987    0.60503    1.000
    N48      N        0.16541    0.01997    0.55128    1.000
    N49      N        0.23391    0.02181    0.59351    1.000
    Si50     Si       0.16866    0.06313    0.54513    1.000
    N51      N        0.06744    0.02426    0.69822    1.000
    Si52     Si       0.05012    0.03087    0.66037    1.000
    N53      N        0.00846    0.04671    0.66365    1.000
    Si54     Si       0.10678    0.04011    0.71080    1.000
    N55      N        0.06873    0.06397    0.64009    1.000
    N56      N        0.19219    0.06505    0.63053    1.000
    N57      N        0.18099    0.03691    0.74273    1.000
    N58      N        0.13771    0.03773    0.67610    1.000
    Si59     Si       0.20871    0.02487    0.62946    1.000
    N60      N        0.22949    0.01680    0.66536    1.000
    N61      N        0.03518    0.03033    0.76693    1.000
    Si62     Si       0.05132    0.04193    0.84184    1.000
    Si63     Si       0.07027    0.05662    0.77442    1.000
    N64      N        0.01028    0.05394    0.83099    1.000
    N65      N        0.10216    0.03343    0.75480    1.000
    N66      N        0.08246    0.06178    0.81623    1.000
    Si67     Si       0.17810    0.04022    0.78825    1.000
    N68      N        0.21234    0.04115    0.81586    1.000
    N69      N        0.12471    0.05116    0.86807    1.000
    N70      N        0.05152    0.04339    0.88755    1.000
    Si71     Si       0.09724    0.05252    0.97421    1.000
    Si72     Si       0.02205    0.04621    0.98265    1.000
    N73      N        0.00548    0.01367    0.95622    1.000
    N74      N        0.05749    0.05534    0.95971    1.000
    N75      N        0.22856    0.02583    0.93715    1.000
    N76      N        0.12113    0.04470    0.93990    1.000
    Si77     Si       0.21553    0.03165    0.89462    1.000
    Si78     Si       0.16187    0.03237    0.94370    1.000
    N79      N        0.17476    0.02446    0.90170    1.000
    Si80     Si       0.14081    0.01128    0.87910    1.000
    Si81     Si       0.05848    0.07855    0.07936    1.000
    N82      N        0.04071    0.11749    0.06837    1.000
    N83      N        0.10018    0.07906    0.06296    1.000
    N84      N        0.07687    0.07655    0.12077    1.000
    Si85     Si       0.11515    0.08807    0.10128    1.000
    N86      N        0.22271    0.09718    0.00670    1.000
    N87      N        0.22192    0.08143    0.07623    1.000
    Si88     Si       0.18106    0.09710    0.07395    1.000
    N89      N        0.16377    0.08117    0.03612    1.000
    N90      N        0.15742    0.07924    0.10697    1.000
    Si91     Si       0.12321    0.07039    0.02820    1.000
    Si92     Si       0.19062    0.06931    0.00483    1.000
    N93      N        0.03665    0.07919    0.23067    1.000
    Si94     Si       0.01038    0.11000    0.21449    1.000
    Si95     Si       0.07042    0.07458    0.20418    1.000
    N96      N        0.08742    0.10995    0.18612    1.000
    Si97     Si       0.07949    0.11442    0.14325    1.000
    N98      N        0.99341    0.08786    0.18038    1.000
    N99      N        0.21031    0.12345    0.20176    1.000
    N100     N        0.15847    0.08348    0.18030    1.000
    Si101    Si       0.23601    0.11254    0.16965    1.000
    N102     N        0.21590    0.08141    0.14399    1.000
    Si103    Si       0.17174    0.12570    0.18472    1.000
    N104     N        0.10245    0.08775    0.34193    1.000
    Si105    Si       0.01863    0.10649    0.36128    1.000
    N106     N        0.04474    0.12668    0.33541    1.000
    Si107    Si       0.10960    0.06790    0.26885    1.000
    N108     N        0.13547    0.10353    0.27481    1.000
    N109     N        0.17670    0.09568    0.33108    1.000
    Si110    Si       0.21748    0.08549    0.34585    1.000
    Si111    Si       0.17595    0.10206    0.28737    1.000
    Si112    Si       0.14330    0.07837    0.35075    1.000
    N113     N        0.07684    0.11385    0.39697    1.000
    N114     N        0.03252    0.10497    0.45001    1.000
    Si115    Si       0.00679    0.12802    0.47480    1.000
    N116     N        0.21856    0.10068    0.38457    1.000
    Si117    Si       0.19813    0.08917    0.48363    1.000
    N118     N        0.14746    0.08629    0.39345    1.000
    Si119    Si       0.18862    0.08103    0.40983    1.000
    Si120    Si       0.11573    0.09624    0.41870    1.000
    N121     N        0.18538    0.10391    0.44601    1.000
    Si122    Si       0.07926    0.08784    0.53625    1.000
    N123     N        0.07783    0.08437    0.57947    1.000
    N124     N        0.01427    0.10120    0.61458    1.000
    Si125    Si       0.04351    0.07194    0.60253    1.000
    Si126    Si       0.11499    0.07349    0.60237    1.000
    N127     N        0.21149    0.12409    0.50686    1.000
    N128     N        0.14725    0.08876    0.57473    1.000
    Si129    Si       0.21007    0.08863    0.59742    1.000
    N130     N        0.16381    0.07469    0.50452    1.000
    N131     N        0.20968    0.06976    0.55880    1.000
    Si132    Si       0.06434    0.10769    0.72442    1.000
    N133     N        0.09526    0.08128    0.70968    1.000
    Si134    Si       0.01355    0.08960    0.65796    1.000
    N135     N        0.04623    0.10615    0.68085    1.000
    Si136    Si       0.09042    0.09313    0.66800    1.000
    N137     N        0.99492    0.06933    0.72698    1.000
    N138     N        0.12579    0.09145    0.64028    1.000
    N139     N        0.23102    0.06952    0.70897    1.000
    Si140    Si       0.19244    0.07456    0.72729    1.000
    N141     N        0.16957    0.09770    0.69426    1.000
    Si142    Si       0.15993    0.07126    0.66128    1.000
    N143     N        0.04845    0.09125    0.76175    1.000
    Si144    Si       0.00965    0.06811    0.77041    1.000
    Si145    Si       0.11859    0.07514    0.83365    1.000
    N146     N        0.11897    0.11679    0.84821    1.000
    N147     N        0.19727    0.10386    0.76103    1.000
    Si148    Si       0.21912    0.08050    0.83662    1.000
    Si149    Si       0.17266    0.11144    0.79593    1.000
    N150     N        0.20114    0.11841    0.82969    1.000
    N151     N        0.15249    0.07426    0.80489    1.000
    Si152    Si       0.99830    0.11530    0.89007    1.000
    Si153    Si       0.02063    0.11676    0.96747    1.000
    N154     N        0.08257    0.09589    0.90739    1.000
    N155     N        0.02350    0.10312    0.92480    1.000
    Si156    Si       0.05064    0.07027    0.92075    1.000
    N157     N        0.10394    0.09222    0.99575    1.000
    N158     N        0.00517    0.08563    0.99331    1.000
    Si159    Si       0.16252    0.11130    0.95061    1.000
    N160     N        0.14589    0.10150    0.91427    1.000
    N161     N        0.17486    0.07022    0.96444    1.000
    N162     N        0.22381    0.06952    0.87870    1.000
    Si163    Si       0.11757    0.07000    0.90483    1.000
    N164     N        0.09026    0.15695    0.02643    1.000
    Si165    Si       0.02896    0.14639    0.10147    1.000
    N166     N        0.02505    0.16634    0.01699    1.000
    Si167    Si       0.05232    0.15248    0.04687    1.000
    N168     N        0.05607    0.17417    0.08411    1.000
    N169     N        0.11226    0.12827    0.11821    1.000
    Si170    Si       0.14851    0.15439    0.11135    1.000
    N171     N        0.19543    0.15912    0.00929    1.000
    Si172    Si       0.20216    0.16377    0.05117    1.000
    N173     N        0.17202    0.13839    0.07475    1.000
    N174     N        0.02828    0.15223    0.21254    1.000
    Si175    Si       0.04002    0.16876    0.17316    1.000
    N176     N        0.04313    0.13846    0.14211    1.000
    Si177    Si       0.10537    0.14490    0.20558    1.000
    Si178    Si       0.05961    0.17351    0.23781    1.000
    N179     N        0.07818    0.17858    0.19052    1.000
    Si180    Si       0.22871    0.13027    0.23966    1.000
    N181     N        0.14817    0.15484    0.20849    1.000
    N182     N        0.17227    0.15176    0.14777    1.000
    Si183    Si       0.20523    0.17987    0.15211    1.000
    Si184    Si       0.04842    0.16354    0.31095    1.000
    N185     N        0.09286    0.15454    0.31419    1.000
    N186     N        0.03294    0.17841    0.27289    1.000
    Si187    Si       0.00408    0.17449    0.36972    1.000
    Si188    Si       0.08599    0.12798    0.35364    1.000
    N189     N        0.09082    0.14518    0.24839    1.000
    Si190    Si       0.12084    0.14397    0.28179    1.000
    Si191    Si       0.18957    0.17696    0.28577    1.000
    N192     N        0.15243    0.16558    0.30364    1.000
    N193     N        0.19933    0.13552    0.27150    1.000
    Si194    Si       0.12454    0.18102    0.33623    1.000
    Si195    Si       0.10314    0.16523    0.41398    1.000
    N196     N        0.06119    0.16986    0.43411    1.000
    N197     N        0.01440    0.13999    0.39171    1.000
    Si198    Si       0.04517    0.13337    0.42060    1.000
    Si199    Si       0.05724    0.18018    0.47958    1.000
    N200     N        0.09773    0.18760    0.49480    1.000
    N201     N        0.11165    0.15898    0.37184    1.000
    N202     N        0.19817    0.16302    0.41321    1.000
    Si203    Si       0.17092    0.14594    0.44163    1.000
    N204     N        0.12720    0.13511    0.43535    1.000
    N205     N        0.16818    0.17238    0.47714    1.000
    Si206    Si       0.23024    0.14274    0.38974    1.000
    N207     N        0.00782    0.15734    0.56934    1.000
    Si208    Si       0.10625    0.16415    0.52961    1.000
    Si209    Si       0.09349    0.17650    0.60442    1.000
    Si210    Si       0.99330    0.17003    0.52984    1.000
    N211     N        0.02518    0.15808    0.50109    1.000
    Si212    Si       0.02462    0.18463    0.59830    1.000
    N213     N        0.08649    0.12687    0.52418    1.000
    N214     N        0.12351    0.14516    0.60228    1.000
    N215     N        0.14847    0.15113    0.53962    1.000
    Si216    Si       0.18411    0.15836    0.51402    1.000
    N217     N        0.19411    0.13068    0.59502    1.000
    Si218    Si       0.15521    0.13086    0.57686    1.000
    N219     N        0.05647    0.16543    0.62233    1.000
    N220     N        0.08303    0.14635    0.73901    1.000
    Si221    Si       0.05623    0.14642    0.66275    1.000
    N222     N        0.10027    0.13825    0.67324    1.000
    N223     N        0.03448    0.17290    0.68750    1.000
    Si224    Si       0.01273    0.17858    0.72607    1.000
    Si225    Si       0.10803    0.16267    0.70909    1.000
    N226     N        0.16501    0.15815    0.65520    1.000
    N227     N        0.23006    0.17603    0.64538    1.000
    N228     N        0.21650    0.14407    0.70603    1.000
    Si229    Si       0.13183    0.13446    0.64375    1.000
    Si230    Si       0.19593    0.16380    0.62318    1.000
    Si231    Si       0.23537    0.17855    0.68851    1.000
    N232     N        0.14878    0.16029    0.72237    1.000
    Si233    Si       0.17539    0.14211    0.69413    1.000
    N234     N        0.07495    0.15596    0.81052    1.000
    Si235    Si       0.04222    0.15988    0.83781    1.000
    N236     N        0.00808    0.15522    0.81001    1.000
    Si237    Si       0.07400    0.17469    0.77038    1.000
    N238     N        0.03359    0.13069    0.86825    1.000
    Si239    Si       0.11597    0.15234    0.82248    1.000
    Si240    Si       0.22896    0.15021    0.84305    1.000
    N241     N        0.14446    0.14456    0.79076    1.000
    N242     N        0.20736    0.17028    0.76572    1.000
    Si243    Si       0.16298    0.17033    0.76330    1.000
    Si244    Si       0.22305    0.13518    0.74701    1.000
    N245     N        0.09313    0.15524    0.89796    1.000
    Si246    Si       0.04249    0.17730    0.97349    1.000
    N247     N        0.06046    0.13540    0.96838    1.000
    N248     N        0.99582    0.15263    0.96254    1.000
    Si249    Si       0.99604    0.17613    0.92584    1.000
    N250     N        0.04100    0.17668    0.92384    1.000
    Si251    Si       0.05764    0.13244    0.90884    1.000
    Si252    Si       0.09964    0.13322    0.98900    1.000
    N253     N        0.13893    0.14190    0.97144    1.000
    N254     N        0.23240    0.13646    0.88544    1.000
    Si255    Si       0.22182    0.13565    0.98470    1.000
    Si256    Si       0.16317    0.17613    0.98602    1.000
    Si257    Si       0.20153    0.15659    0.91032    1.000
    N258     N        0.19945    0.13546    0.94681    1.000
    N259     N        0.16178    0.16492    0.89245    1.000
    Si260    Si       0.12839    0.13365    0.89014    1.000
    N261     N        0.09187    0.22476    0.05090    1.000
    Si262    Si       0.10027    0.19923    0.01714    1.000
    Si263    Si       0.08802    0.20360    0.08861    1.000
    N264     N        0.00249    0.23003    0.09009    1.000
    N265     N        0.20372    0.20843    0.04808    1.000
    N266     N        0.14404    0.20055    0.01727    1.000
    Si267    Si       0.16623    0.23002    0.04045    1.000
    N268     N        0.13032    0.19408    0.10330    1.000
    Si269    Si       0.15349    0.22861    0.11370    1.000
    N270     N        0.06894    0.22595    0.12086    1.000
    Si271    Si       0.02615    0.22845    0.12642    1.000
    N272     N        0.01066    0.19508    0.15259    1.000
    Si273    Si       0.09651    0.21779    0.20377    1.000
    N274     N        0.00591    0.23965    0.23517    1.000
    N275     N        0.08243    0.21456    0.24378    1.000
    N276     N        0.20525    0.19595    0.19310    1.000
    N277     N        0.19502    0.21775    0.13096    1.000
    Si278    Si       0.16866    0.19510    0.21581    1.000
    N279     N        0.13978    0.22569    0.20254    1.000
    Si280    Si       0.01629    0.22748    0.32027    1.000
    Si281    Si       0.99798    0.20265    0.25764    1.000
    Si282    Si       0.08614    0.23482    0.28289    1.000
    N283     N        0.03183    0.19226    0.34049    1.000
    N284     N        0.11165    0.21536    0.31131    1.000
    Si285    Si       0.13772    0.24473    0.33152    1.000
    N286     N        0.18245    0.20921    0.25610    1.000
    N287     N        0.14450    0.21670    0.36285    1.000
    N288     N        0.22724    0.19030    0.30136    1.000
    N289     N        0.00439    0.20403    0.40231    1.000
    N290     N        0.03643    0.21780    0.46670    1.000
    Si291    Si       0.04270    0.21097    0.42367    1.000
    Si292    Si       0.99637    0.23119    0.48205    1.000
    N293     N        0.06912    0.23006    0.39568    1.000
    N294     N        0.14405    0.24066    0.48518    1.000
    Si295    Si       0.21394    0.20224    0.42101    1.000
    N296     N        0.23217    0.21105    0.38460    1.000
    Si297    Si       0.13347    0.20123    0.47370    1.000
    N298     N        0.18319    0.23169    0.42645    1.000
    Si299    Si       0.14486    0.22907    0.40470    1.000
    N300     N        0.12341    0.20096    0.43077    1.000
    N301     N        0.03507    0.22306    0.58220    1.000
    Si302    Si       0.07282    0.22990    0.56334    1.000
    N303     N        0.09358    0.19020    0.56332    1.000
    Si304    Si       0.20218    0.21408    0.57272    1.000
    N305     N        0.17859    0.19917    0.60462    1.000
    N306     N        0.20538    0.18755    0.53715    1.000
    N307     N        0.99607    0.19394    0.63383    1.000
    Si308    Si       0.08584    0.22250    0.66801    1.000
    Si309    Si       0.01253    0.20706    0.67081    1.000
    N310     N        0.09799    0.20486    0.70569    1.000
    Si311    Si       0.10590    0.23515    0.73702    1.000
    N312     N        0.04370    0.23518    0.66189    1.000
    N313     N        0.10841    0.20237    0.63680    1.000
    N314     N        0.21701    0.21419    0.70078    1.000
    Si315    Si       0.15043    0.20152    0.64240    1.000
    N316     N        0.16757    0.23594    0.66239    1.000
    Si317    Si       0.20922    0.24317    0.66682    1.000
    N318     N        0.04626    0.19593    0.86099    1.000
    N319     N        0.10015    0.20997    0.77405    1.000
    Si320    Si       0.03343    0.23400    0.84903    1.000
    Si321    Si       0.03962    0.23517    0.76535    1.000
    N322     N        0.03928    0.19432    0.75388    1.000
    N323     N        0.99245    0.24398    0.86139    1.000
    N324     N        0.23667    0.23588    0.76606    1.000
    Si325    Si       0.13007    0.21781    0.80578    1.000
    Si326    Si       0.20641    0.21016    0.79067    1.000
    Si327    Si       0.20829    0.22636    0.85114    1.000
    N328     N        0.16390    0.21063    0.78134    1.000
    N329     N        0.12670    0.19057    0.83961    1.000
    N330     N        0.21294    0.19048    0.83002    1.000
    Si331    Si       0.07029    0.19244    0.89750    1.000
    N332     N        0.01757    0.21368    0.97201    1.000
    N333     N        0.07807    0.20214    0.98018    1.000
    N334     N        0.10712    0.21698    0.90154    1.000
    Si335    Si       0.05331    0.23683    0.96886    1.000
    N336     N        0.17331    0.23129    0.87963    1.000
    N337     N        0.16973    0.20791    0.95620    1.000
    Si338    Si       0.13982    0.20016    0.87886    1.000
    N339     N        0.21962    0.19501    0.91412    1.000
    Si340    Si       0.19014    0.22487    0.92092    1.000
    N341     N        0.04702    0.28099    0.06853    1.000
    Si342    Si       0.07379    0.26273    0.04194    1.000
    Si343    Si       0.00399    0.27027    0.07349    1.000
    N344     N        0.06000    0.26429    0.99995    1.000
    N345     N        0.10870    0.29146    0.03289    1.000
    Si346    Si       0.99494    0.28917    0.00275    1.000
    N347     N        0.16203    0.25299    0.07826    1.000
    Si348    Si       0.20674    0.28717    0.01241    1.000
    N349     N        0.17493    0.25772    0.00594    1.000
    Si350    Si       0.17646    0.29203    0.08517    1.000
    N351     N        0.20775    0.29341    0.11790    1.000
    N352     N        0.20679    0.30160    0.05507    1.000
    Si353    Si       0.23760    0.29345    0.08263    1.000
    N354     N        0.08840    0.29585    0.12108    1.000
    N355     N        0.01968    0.26769    0.14439    1.000
    Si356    Si       0.08997    0.25762    0.14129    1.000
    Si357    Si       0.07550    0.28960    0.20474    1.000
    N358     N        0.07810    0.25084    0.18280    1.000
    N359     N        0.05635    0.29572    0.24553    1.000
    Si360    Si       0.01342    0.30363    0.17156    1.000
    Si361    Si       0.14842    0.26488    0.18515    1.000
    N362     N        0.11935    0.29102    0.20597    1.000
    N363     N        0.13388    0.25430    0.14227    1.000
    Si364    Si       0.21465    0.25518    0.14256    1.000
    N365     N        0.19011    0.27571    0.17544    1.000
    N366     N        0.00157    0.25969    0.34976    1.000
    Si367    Si       0.02798    0.26706    0.26150    1.000
    N368     N        0.00324    0.29170    0.28766    1.000
    Si369    Si       0.99053    0.29576    0.33105    1.000
    N370     N        0.11202    0.27219    0.28117    1.000
    Si371    Si       0.11079    0.30181    0.31456    1.000
    N372     N        0.04549    0.24403    0.29456    1.000
    N373     N        0.11010    0.27332    0.34691    1.000
    Si374    Si       0.12872    0.29466    0.24864    1.000
    N375     N        0.17124    0.28863    0.25285    1.000
    Si376    Si       0.20343    0.27773    0.33565    1.000
    N377     N        0.22694    0.26718    0.26100    1.000
    N378     N        0.17440    0.25567    0.31050    1.000
    Si379    Si       0.18815    0.25035    0.27037    1.000
    N380     N        0.18184    0.29837    0.36796    1.000
    N381     N        0.23621    0.24899    0.33360    1.000
    N382     N        0.98918    0.27442    0.48534    1.000
    Si383    Si       0.08741    0.26660    0.38295    1.000
    N384     N        0.00923    0.27263    0.41963    1.000
    N385     N        0.05692    0.29813    0.38050    1.000
    Si386    Si       0.99113    0.24621    0.38904    1.000
    N387     N        0.11387    0.29975    0.47546    1.000
    N388     N        0.23771    0.27913    0.39464    1.000
    N389     N        0.17958    0.29714    0.44536    1.000
    N390     N        0.21541    0.25061    0.48776    1.000
    Si391    Si       0.20131    0.29737    0.40580    1.000
    Si392    Si       0.17884    0.25431    0.46419    1.000
    N393     N        0.12476    0.26901    0.41091    1.000
    Si394    Si       0.13688    0.30198    0.43461    1.000
    N395     N        0.09224    0.25874    0.59079    1.000
    N396     N        0.00834    0.27624    0.55096    1.000
    N397     N        0.07733    0.25495    0.52510    1.000
    Si398    Si       0.04686    0.28582    0.53399    1.000
    Si399    Si       0.99664    0.24639    0.58364    1.000
    Si400    Si       0.10821    0.29854    0.57496    1.000
    N401     N        0.99187    0.27135    0.61838    1.000
    Si402    Si       0.11583    0.26921    0.50678    1.000
    Si403    Si       0.22262    0.27280    0.52329    1.000
    N404     N        0.13432    0.28763    0.54280    1.000
    Si405    Si       0.17633    0.29079    0.55860    1.000
    N406     N        0.19929    0.25356    0.55631    1.000
    Si407    Si       0.08877    0.27722    0.62960    1.000
    N408     N        0.10596    0.26098    0.66578    1.000
    N409     N        0.99996    0.28240    0.68869    1.000
    Si410    Si       0.02109    0.27201    0.65206    1.000
    N411     N        0.06898    0.25921    0.74391    1.000
    N412     N        0.05325    0.29839    0.64426    1.000
    N413     N        0.21337    0.27533    0.69636    1.000
    Si414    Si       0.23528    0.24654    0.72245    1.000
    Si415    Si       0.14426    0.26505    0.68486    1.000
    N416     N        0.13874    0.26384    0.73007    1.000
    N417     N        0.15873    0.30325    0.67016    1.000
    Si418    Si       0.08897    0.28375    0.82707    1.000
    N419     N        0.05921    0.27099    0.85717    1.000
    N420     N        0.00196    0.25876    0.75735    1.000
    Si421    Si       0.99530    0.26526    0.80238    1.000
    N422     N        0.02926    0.23936    0.80690    1.000
    N423     N        0.20282    0.25065    0.81485    1.000
    N424     N        0.12584    0.25880    0.81894    1.000
    Si425    Si       0.16557    0.27491    0.81865    1.000
    N426     N        0.17617    0.29438    0.85713    1.000
    N427     N        0.23178    0.30237    0.77530    1.000
    Si428    Si       0.14422    0.30225    0.74990    1.000
    N429     N        0.05754    0.25588    0.92887    1.000
    Si430    Si       0.10083    0.25409    0.92261    1.000
    Si431    Si       0.09860    0.28544    0.99166    1.000
    Si432    Si       0.04196    0.28011    0.89737    1.000
    N433     N        0.00223    0.29952    0.89868    1.000
    N434     N        0.17965    0.26775    0.93070    1.000
    N435     N        0.11789    0.25933    0.96373    1.000
    Si436    Si       0.15992    0.24857    0.96714    1.000
    Si437    Si       0.16124    0.27552    0.89238    1.000
    N438     N        0.11891    0.28589    0.89832    1.000
    N439     N        0.08112    0.34437    0.06855    1.000
    Si440    Si       0.06168    0.31419    0.09154    1.000
    Si441    Si       0.99403    0.33726    0.11204    1.000
    N442     N        0.03702    0.34013    0.11616    1.000
    Si443    Si       0.11976    0.32672    0.05299    1.000
    N444     N        0.14281    0.31829    0.08876    1.000
    N445     N        0.05340    0.31852    0.18048    1.000
    Si446    Si       0.05859    0.34989    0.15020    1.000
    N447     N        0.10294    0.35417    0.14605    1.000
    N448     N        0.99095    0.33918    0.15729    1.000
    N449     N        0.22815    0.33455    0.23526    1.000
    Si450    Si       0.19946    0.31554    0.15540    1.000
    Si451    Si       0.12443    0.31955    0.12947    1.000
    N452     N        0.15884    0.33073    0.15527    1.000
    N453     N        0.23717    0.33366    0.16821    1.000
    N454     N        0.07137    0.32267    0.31205    1.000
    Si455    Si       0.05540    0.32828    0.35009    1.000
    N456     N        0.01259    0.33121    0.34410    1.000
    Si457    Si       0.06710    0.32954    0.27015    1.000
    N458     N        0.11279    0.33444    0.26127    1.000
    N459     N        0.13725    0.33508    0.32495    1.000
    N460     N        0.21625    0.31188    0.30944    1.000
    Si461    Si       0.15808    0.33615    0.36442    1.000
    Si462    Si       0.20559    0.31219    0.26532    1.000
    Si463    Si       0.22531    0.34769    0.33334    1.000
    Si464    Si       0.14340    0.35783    0.28831    1.000
    N465     N        0.18128    0.35769    0.26845    1.000
    N466     N        0.07075    0.33011    0.43618    1.000
    N467     N        0.00352    0.33325    0.43841    1.000
    Si468    Si       0.07753    0.32448    0.47888    1.000
    Si469    Si       0.09284    0.35670    0.41201    1.000
    Si470    Si       0.03532    0.30745    0.41748    1.000
    N471     N        0.13745    0.33905    0.40675    1.000
    N472     N        0.21436    0.33872    0.41610    1.000
    Si473    Si       0.20347    0.33392    0.45848    1.000
    N474     N        0.23998    0.33696    0.48036    1.000
    N475     N        0.07197    0.31426    0.55813    1.000
    Si476    Si       0.06764    0.35506    0.54727    1.000
    N477     N        0.04525    0.30661    0.49776    1.000
    N478     N        0.10783    0.31627    0.61619    1.000
    N479     N        0.08207    0.35959    0.50491    1.000
    N480     N        0.20337    0.31015    0.52788    1.000
    Si481    Si       0.22676    0.34683    0.52099    1.000
    N482     N        0.17098    0.30498    0.59891    1.000
    N483     N        0.09644    0.35262    0.67630    1.000
    N484     N        0.04752    0.32469    0.72015    1.000
    Si485    Si       0.07530    0.33614    0.64011    1.000
    Si486    Si       0.08313    0.35109    0.71753    1.000
    Si487    Si       0.00711    0.32445    0.70319    1.000
    N488     N        0.99739    0.35147    0.67189    1.000
    N489     N        0.10807    0.32266    0.73756    1.000
    Si490    Si       0.14829    0.31964    0.63143    1.000
    N491     N        0.17861    0.32251    0.73039    1.000
    N492     N        0.21479    0.34364    0.66742    1.000
    Si493    Si       0.19417    0.31528    0.69227    1.000
    Si494    Si       0.03397    0.32821    0.81176    1.000
    N495     N        0.03431    0.35037    0.84914    1.000
    N496     N        0.10635    0.32054    0.84297    1.000
    N497     N        0.99463    0.30980    0.80676    1.000
    N498     N        0.06536    0.30414    0.79486    1.000
    Si499    Si       0.98650    0.33995    0.77314    1.000
    N500     N        0.02343    0.36009    0.78174    1.000
    Si501    Si       0.07006    0.30046    0.75007    1.000
    Si502    Si       0.19669    0.32873    0.76964    1.000
    Si503    Si       0.13796    0.33734    0.81957    1.000
    N504     N        0.16119    0.30936    0.79065    1.000
    N505     N        0.16658    0.35847    0.84586    1.000
    Si506    Si       0.19292    0.33227    0.86945    1.000
    Si507    Si       0.01922    0.33734    0.88835    1.000
    N508     N        0.05850    0.32171    0.90597    1.000
    N509     N        0.08939    0.32226    0.97007    1.000
    N510     N        0.02098    0.32205    0.96676    1.000
    Si511    Si       0.09805    0.32425    0.88755    1.000
    Si512    Si       0.05569    0.33612    0.94742    1.000
    Si513    Si       0.20191    0.30680    0.93685    1.000
    N514     N        0.22729    0.35848    0.87213    1.000
    Si515    Si       0.19780    0.36188    0.97573    1.000
    N516     N        0.17575    0.33262    0.90816    1.000
    N517     N        0.20140    0.31643    0.97890    1.000
    N518     N        0.07158    0.39861    0.02023    1.000
    Si519    Si       0.09484    0.38285    0.05261    1.000
    N520     N        0.10588    0.41068    0.08399    1.000
    Si521    Si       0.21347    0.40868    0.09479    1.000
    Si522    Si       0.16634    0.39268    0.03367    1.000
    N523     N        0.17338    0.40505    0.07409    1.000
    Si524    Si       0.14554    0.40951    0.10442    1.000
    N525     N        0.20315    0.37841    0.01511    1.000
    N526     N        0.13205    0.36534    0.03689    1.000
    Si527    Si       0.10159    0.37556    0.24607    1.000
    N528     N        0.04712    0.39038    0.16307    1.000
    N529     N        0.99955    0.38789    0.21714    1.000
    Si530    Si       0.08089    0.40910    0.18413    1.000
    Si531    Si       0.03548    0.40090    0.23856    1.000
    Si532    Si       0.02402    0.41752    0.14015    1.000
    N533     N        0.11074    0.38319    0.20416    1.000
    Si534    Si       0.20557    0.37208    0.23497    1.000
    N535     N        0.21164    0.38941    0.13183    1.000
    Si536    Si       0.13801    0.36649    0.17499    1.000
    N537     N        0.23640    0.39914    0.18764    1.000
    N538     N        0.14950    0.40227    0.14618    1.000
    Si539    Si       0.18985    0.40532    0.16865    1.000
    N540     N        0.17744    0.37632    0.19953    1.000
    N541     N        0.03829    0.39789    0.32537    1.000
    Si542    Si       0.06994    0.40025    0.35701    1.000
    Si543    Si       0.00280    0.37428    0.33940    1.000
    N544     N        0.05813    0.36810    0.25288    1.000
    N545     N        0.10589    0.42350    0.34536    1.000
    N546     N        0.07572    0.36063    0.37240    1.000
    N547     N        0.12101    0.39358    0.28072    1.000
    N548     N        0.22720    0.40371    0.25604    1.000
    N549     N        0.18882    0.36428    0.35331    1.000
    Si550    Si       0.18873    0.40454    0.37183    1.000
    N551     N        0.00910    0.41156    0.43771    1.000
    Si552    Si       0.10111    0.39296    0.48560    1.000
    N553     N        0.10729    0.38444    0.44401    1.000
    Si554    Si       0.14902    0.37593    0.43098    1.000
    N555     N        0.15439    0.40467    0.39891    1.000
    N556     N        0.17771    0.36754    0.46301    1.000
    N557     N        0.22776    0.40584    0.39015    1.000
    N558     N        0.09003    0.38642    0.57016    1.000
    Si559    Si       0.07145    0.40135    0.60583    1.000
    Si560    Si       0.00466    0.39077    0.58151    1.000
    N561     N        0.02437    0.36427    0.54976    1.000
    Si562    Si       0.98853    0.36951    0.52506    1.000
    N563     N        0.98586    0.38405    0.62018    1.000
    Si564    Si       0.12104    0.40762    0.54947    1.000
    N565     N        0.13657    0.39841    0.50840    1.000
    Si566    Si       0.19945    0.40522    0.56557    1.000
    N567     N        0.19948    0.37844    0.53009    1.000
    N568     N        0.21352    0.37579    0.59516    1.000
    Si569    Si       0.17822    0.39425    0.49685    1.000
    N570     N        0.05162    0.36749    0.62453    1.000
    Si571    Si       0.01834    0.38235    0.64880    1.000
    N572     N        0.07179    0.38783    0.73817    1.000
    N573     N        0.10023    0.41341    0.63784    1.000
    N574     N        0.03352    0.41017    0.67944    1.000
    Si575    Si       0.12266    0.38149    0.66070    1.000
    N576     N        0.14091    0.40144    0.69455    1.000
    N577     N        0.19541    0.40760    0.65534    1.000
    N578     N        0.15264    0.36269    0.63370    1.000
    Si579    Si       0.19610    0.36840    0.63653    1.000
    Si580    Si       0.04448    0.39441    0.84574    1.000
    Si581    Si       0.04661    0.39459    0.77244    1.000
    N582     N        0.06771    0.40069    0.81064    1.000
    Si583    Si       0.10914    0.40585    0.80100    1.000
    N584     N        0.00997    0.42022    0.84634    1.000
    N585     N        0.12368    0.36785    0.79308    1.000
    Si586    Si       0.16683    0.40083    0.84977    1.000
    N587     N        0.20302    0.41323    0.83164    1.000
    N588     N        0.22636    0.36145    0.76402    1.000
    N589     N        0.99023    0.38596    0.97085    1.000
    N590     N        0.06197    0.40887    0.88350    1.000
    Si591    Si       0.08651    0.39484    0.91775    1.000
    Si592    Si       0.07053    0.40486    0.97613    1.000
    N593     N        0.05271    0.38012    0.94308    1.000
    Si594    Si       0.01201    0.39638    0.93554    1.000
    N595     N        0.10533    0.41391    0.95224    1.000
    N596     N        0.99421    0.37291    0.90108    1.000
    N597     N        0.11350    0.36181    0.90491    1.000
    N598     N        0.16353    0.38151    0.95776    1.000
    Si599    Si       0.15513    0.37348    0.91402    1.000
    N600     N        0.23112    0.37072    0.94794    1.000
    N601     N        0.16191    0.41040    0.89159    1.000
    Si602    Si       0.14490    0.41969    0.96694    1.000
    N603     N        0.04495    0.46192    0.04703    1.000
    Si604    Si       0.03344    0.46252    0.08709    1.000
    Si605    Si       0.10537    0.45433    0.08935    1.000
    Si606    Si       0.03709    0.42612    0.02409    1.000
    N607     N        0.07144    0.47273    0.10924    1.000
    N608     N        0.02683    0.42006    0.09717    1.000
    N609     N        0.99549    0.41758    0.03588    1.000
    N610     N        0.11233    0.47169    0.05052    1.000
    Si611    Si       0.14639    0.46581    0.02549    1.000
    N612     N        0.21666    0.45029    0.10252    1.000
    N613     N        0.14284    0.45477    0.11115    1.000
    Si614    Si       0.18056    0.47196    0.09238    1.000
    N615     N        0.15000    0.42620    0.00929    1.000
    Si616    Si       0.06819    0.47107    0.15099    1.000
    N617     N        0.02564    0.45894    0.15103    1.000
    N618     N        0.09815    0.44005    0.15992    1.000
    N619     N        0.06656    0.42839    0.21963    1.000
    Si620    Si       0.19117    0.47291    0.20436    1.000
    N621     N        0.17267    0.45621    0.24033    1.000
    Si622    Si       0.14073    0.44950    0.15477    1.000
    N623     N        0.18104    0.44825    0.17139    1.000
    N624     N        0.23361    0.46518    0.22356    1.000
    N625     N        0.07345    0.44367    0.28738    1.000
    Si626    Si       0.03378    0.43453    0.30251    1.000
    N627     N        0.01449    0.46469    0.32685    1.000
    N628     N        0.01469    0.42822    0.26352    1.000
    Si629    Si       0.07360    0.46204    0.24805    1.000
    Si630    Si       0.00266    0.47442    0.25519    1.000
    Si631    Si       0.11234    0.43012    0.30279    1.000
    Si632    Si       0.21223    0.44448    0.25778    1.000
    N633     N        0.21130    0.45840    0.29919    1.000
    N634     N        0.17231    0.44346    0.35471    1.000
    N635     N        0.14032    0.46316    0.29847    1.000
    Si636    Si       0.17508    0.47199    0.32095    1.000
    Si637    Si       0.01210    0.42394    0.39388    1.000
    Si638    Si       0.03873    0.43737    0.46068    1.000
    Si639    Si       0.07216    0.46419    0.40018    1.000
    N640     N        0.05993    0.46830    0.43957    1.000
    N641     N        0.05373    0.42688    0.38628    1.000
    N642     N        0.00906    0.45312    0.48678    1.000
    N643     N        0.06992    0.42594    0.49130    1.000
    N644     N        0.99487    0.46320    0.39112    1.000
    Si645    Si       0.13373    0.43677    0.37459    1.000
    N646     N        0.19919    0.43104    0.48709    1.000
    N647     N        0.11733    0.46624    0.40222    1.000
    N648     N        0.22447    0.47276    0.42653    1.000
    Si649    Si       0.20433    0.46656    0.46346    1.000
    Si650    Si       0.01768    0.46104    0.58651    1.000
    Si651    Si       0.07177    0.45766    0.52194    1.000
    N652     N        0.10701    0.44861    0.54661    1.000
    N653     N        0.03538    0.46712    0.54606    1.000
    Si654    Si       0.99542    0.47200    0.52565    1.000
    N655     N        0.03257    0.42180    0.59604    1.000
    N656     N        0.22379    0.43941    0.55379    1.000
    Si657    Si       0.14465    0.46164    0.56554    1.000
    Si658    Si       0.23694    0.43898    0.51103    1.000
    Si659    Si       0.21658    0.47830    0.57040    1.000
    N660     N        0.15862    0.41978    0.56768    1.000
    Si661    Si       0.10393    0.45016    0.65976    1.000
    N662     N        0.08848    0.44948    0.70282    1.000
    Si663    Si       0.05587    0.42189    0.71485    1.000
    N664     N        0.20318    0.44160    0.70735    1.000
    Si665    Si       0.11209    0.46011    0.73792    1.000
    N666     N        0.14863    0.45788    0.65888    1.000
    N667     N        0.15311    0.47589    0.72722    1.000
    Si668    Si       0.17016    0.42986    0.68275    1.000
    Si669    Si       0.00025    0.46194    0.76617    1.000
    N670     N        0.03268    0.43182    0.75283    1.000
    N671     N        0.04689    0.47413    0.86887    1.000
    N672     N        0.98752    0.47341    0.80604    1.000
    N673     N        0.11400    0.43949    0.77436    1.000
    Si674    Si       0.21413    0.44619    0.80600    1.000
    Si675    Si       0.13998    0.46096    0.80429    1.000
    N676     N        0.17869    0.46646    0.78827    1.000
    N677     N        0.22226    0.43289    0.76693    1.000
    N678     N        0.13680    0.42542    0.82964    1.000
    Si679    Si       0.19462    0.46278    0.74614    1.000
    N680     N        0.24047    0.46963    0.83064    1.000
    N681     N        0.00595    0.43757    0.92122    1.000
    Si682    Si       0.02699    0.43932    0.88275    1.000
    N683     N        0.04129    0.43560    0.98015    1.000
    Si684    Si       0.04597    0.47760    0.96721    1.000
    Si685    Si       0.22890    0.46169    0.87332    1.000
    N686     N        0.12397    0.47806    0.88937    1.000
    Si687    Si       0.15883    0.45434    0.89908    1.000
    N688     N        0.16006    0.45295    0.94135    1.000
    N689     N        0.19167    0.48010    0.88788    1.000
    Si690    Si       0.07431    0.49221    0.03927    1.000
    N691     N        0.06464    0.53026    0.05600    1.000
    N692     N        0.00052    0.52885    0.03153    1.000
    N693     N        0.99819    0.48505    0.09354    1.000
    Si694    Si       0.21577    0.53244    0.10356    1.000
    Si695    Si       0.19251    0.51734    0.03498    1.000
    N696     N        0.17965    0.51075    0.11295    1.000
    N697     N        0.23141    0.51254    0.01457    1.000
    N698     N        0.17809    0.48044    0.05017    1.000
    N699     N        0.10883    0.48315    0.23618    1.000
    N700     N        0.06789    0.50035    0.18232    1.000
    Si701    Si       0.02562    0.51031    0.19155    1.000
    N702     N        0.00723    0.52347    0.15260    1.000
    Si703    Si       0.99417    0.48587    0.13629    1.000
    Si704    Si       0.10631    0.50812    0.20032    1.000
    N705     N        0.99820    0.48122    0.20940    1.000
    Si706    Si       0.14384    0.52066    0.13336    1.000
    N707     N        0.13296    0.49463    0.16617    1.000
    N708     N        0.18563    0.51604    0.20843    1.000
    Si709    Si       0.01496    0.49048    0.36028    1.000
    N710     N        0.04191    0.49416    0.25533    1.000
    Si711    Si       0.07554    0.53595    0.37105    1.000
    N712     N        0.05592    0.49599    0.37251    1.000
    N713     N        0.16231    0.52269    0.26960    1.000
    N714     N        0.17173    0.51265    0.33484    1.000
    N715     N        0.23205    0.53345    0.26286    1.000
    Si716    Si       0.15959    0.53483    0.36993    1.000
    Si717    Si       0.14448    0.48414    0.26025    1.000
    Si718    Si       0.07307    0.50636    0.46145    1.000
    N719     N        0.03742    0.53122    0.46174    1.000
    N720     N        0.11370    0.52121    0.44747    1.000
    Si721    Si       0.14138    0.49550    0.42280    1.000
    N722     N        0.24197    0.47603    0.48810    1.000
    Si723    Si       0.21757    0.51307    0.41313    1.000
    N724     N        0.16462    0.48725    0.46159    1.000
    Si725    Si       0.14798    0.52452    0.47468    1.000
    N726     N        0.23201    0.53337    0.44818    1.000
    N727     N        0.17676    0.51400    0.40299    1.000
    N728     N        0.11875    0.53195    0.38402    1.000
    N729     N        0.08830    0.51917    0.56834    1.000
    Si730    Si       0.09706    0.52517    0.52673    1.000
    Si731    Si       0.10336    0.50871    0.60656    1.000
    N732     N        0.08280    0.49379    0.50104    1.000
    Si733    Si       0.17369    0.52864    0.54076    1.000
    N734     N        0.17854    0.48685    0.55025    1.000
    N735     N        0.13717    0.53038    0.51618    1.000
    N736     N        0.13893    0.48613    0.60004    1.000
    N737     N        0.21029    0.47685    0.61302    1.000
    N738     N        0.08327    0.48376    0.63720    1.000
    N739     N        0.01223    0.48314    0.62506    1.000
    N740     N        0.04057    0.51678    0.68254    1.000
    Si741    Si       0.04555    0.50403    0.64139    1.000
    Si742    Si       0.00497    0.51422    0.70522    1.000
    N743     N        0.11161    0.53099    0.69530    1.000
    N744     N        0.01526    0.49685    0.74358    1.000
    Si745    Si       0.21377    0.53257    0.67092    1.000
    Si746    Si       0.13730    0.51605    0.73006    1.000
    N747     N        0.17259    0.52127    0.65870    1.000
    Si748    Si       0.17004    0.48609    0.63138    1.000
    N749     N        0.23829    0.49779    0.67229    1.000
    N750     N        0.21839    0.49852    0.74369    1.000
    Si751    Si       0.04652    0.50991    0.84283    1.000
    N752     N        0.05534    0.51342    0.80034    1.000
    Si753    Si       0.09600    0.51898    0.78994    1.000
    Si754    Si       0.03080    0.52772    0.76868    1.000
    N755     N        0.10113    0.50006    0.75079    1.000
    N756     N        0.08360    0.52482    0.86661    1.000
    N757     N        0.12263    0.49793    0.81780    1.000
    Si758    Si       0.12631    0.51096    0.85791    1.000
    N759     N        0.10935    0.53718    0.96241    1.000
    N760     N        0.06973    0.49541    0.93483    1.000
    Si761    Si       0.08198    0.48917    0.89433    1.000
    Si762    Si       0.00066    0.52800    0.98841    1.000
    N763     N        0.00376    0.49098    0.96827    1.000
    Si764    Si       0.11087    0.49429    0.96788    1.000
    N765     N        0.07838    0.49034    0.99659    1.000
    N766     N        0.14814    0.48994    0.99057    1.000
    Si767    Si       0.18108    0.48728    0.95674    1.000
    Si768    Si       0.18417    0.52473    0.89809    1.000
    N769     N        0.22587    0.48850    0.95096    1.000
    N770     N        0.17190    0.52675    0.94056    1.000
    N771     N        0.04801    0.56982    0.10338    1.000
    Si772    Si       0.02701    0.55123    0.06217    1.000
    Si773    Si       0.08684    0.55670    0.08255    1.000
    N774     N        0.03433    0.58866    0.03753    1.000
    N775     N        0.10006    0.59328    0.06386    1.000
    N776     N        0.98850    0.54972    0.08718    1.000
    N777     N        0.11595    0.54180    0.11080    1.000
    Si778    Si       0.17906    0.58953    0.00864    1.000
    N779     N        0.16814    0.54681    0.01248    1.000
    N780     N        0.21316    0.54719    0.06297    1.000
    N781     N        0.22035    0.58537    0.00109    1.000
    Si782    Si       0.23790    0.55516    0.02713    1.000
    Si783    Si       0.00861    0.56247    0.13258    1.000
    N784     N        0.02880    0.54586    0.21478    1.000
    Si785    Si       0.09936    0.57753    0.23749    1.000
    Si786    Si       0.03813    0.58591    0.20130    1.000
    N787     N        0.02875    0.59147    0.15953    1.000
    N788     N        0.12017    0.54822    0.21135    1.000
    Si789    Si       0.18330    0.59044    0.14101    1.000
    N790     N        0.18849    0.57809    0.21969    1.000
    Si791    Si       0.16016    0.55049    0.19843    1.000
    N792     N        0.21791    0.56996    0.12608    1.000
    Si793    Si       0.12569    0.57875    0.13076    1.000
    N794     N        0.15555    0.55955    0.15577    1.000
    Si795    Si       0.07847    0.56879    0.30726    1.000
    N796     N        0.01352    0.56414    0.28445    1.000
    N797     N        0.07362    0.55738    0.26345    1.000
    N798     N        0.05870    0.56518    0.34517    1.000
    Si799    Si       0.03334    0.53788    0.25731    1.000
    N800     N        0.11761    0.55287    0.31411    1.000
    N801     N        0.18486    0.57850    0.28711    1.000
    N802     N        0.16601    0.57337    0.35224    1.000
    Si803    Si       0.16035    0.54810    0.30923    1.000
    Si804    Si       0.22414    0.59197    0.29482    1.000
    Si805    Si       0.19244    0.54577    0.24887    1.000
    Si806    Si       0.00159    0.54244    0.48362    1.000
    Si807    Si       0.03916    0.56706    0.43779    1.000
    N808     N        0.01290    0.58634    0.40987    1.000
    N809     N        0.06783    0.55800    0.40736    1.000
    Si810    Si       0.10965    0.55507    0.42103    1.000
    Si811    Si       0.04290    0.59374    0.37544    1.000
    N812     N        0.06052    0.59602    0.46385    1.000
    N813     N        0.16674    0.55962    0.45827    1.000
    Si814    Si       0.20677    0.55829    0.47375    1.000
    N815     N        0.12078    0.59502    0.43113    1.000
    N816     N        0.22009    0.59650    0.38613    1.000
    N817     N        0.21569    0.59872    0.48512    1.000
    N818     N        0.07243    0.55974    0.52642    1.000
    N819     N        0.01021    0.55296    0.57279    1.000
    Si820    Si       0.05558    0.55038    0.56893    1.000
    N821     N        0.01333    0.57729    0.50804    1.000
    Si822    Si       0.01141    0.55690    0.61549    1.000
    Si823    Si       0.05391    0.59285    0.50626    1.000
    N824     N        0.05217    0.54133    0.61746    1.000
    N825     N        0.06113    0.59263    0.58590    1.000
    Si826    Si       0.98732    0.57455    0.54205    1.000
    N827     N        0.20562    0.53669    0.51168    1.000
    Si828    Si       0.14666    0.58277    0.60134    1.000
    N829     N        0.16988    0.55318    0.57606    1.000
    Si830    Si       0.08155    0.57352    0.62563    1.000
    N831     N        0.07020    0.57397    0.66792    1.000
    N832     N        0.05113    0.55880    0.73617    1.000
    Si833    Si       0.01394    0.58317    0.72445    1.000
    Si834    Si       0.07010    0.54216    0.69916    1.000
    N835     N        0.11757    0.54610    0.62571    1.000
    Si836    Si       0.13837    0.54599    0.66397    1.000
    N837     N        0.21981    0.56896    0.64840    1.000
    N838     N        0.22406    0.54920    0.70858    1.000
    N839     N        0.15520    0.58372    0.68200    1.000
    N840     N        0.10753    0.55901    0.77470    1.000
    Si841    Si       0.08018    0.58579    0.75462    1.000
    N842     N        0.10361    0.58276    0.84560    1.000
    N843     N        0.02942    0.54703    0.85321    1.000
    N844     N        0.99232    0.54363    0.78763    1.000
    Si845    Si       0.06617    0.56792    0.86882    1.000
    N846     N        0.22593    0.56415    0.77680    1.000
    Si847    Si       0.14735    0.58171    0.85429    1.000
    Si848    Si       0.14780    0.57435    0.77499    1.000
    N849     N        0.16630    0.58176    0.81345    1.000
    Si850    Si       0.20755    0.58838    0.80799    1.000
    N851     N        0.16540    0.54105    0.75039    1.000
    N852     N        0.22003    0.59225    0.84926    1.000
    N853     N        0.15585    0.54064    0.86865    1.000
    Si854    Si       0.20745    0.53851    0.74722    1.000
    N855     N        0.06595    0.56776    0.91301    1.000
    N856     N        0.04074    0.54638    0.97701    1.000
    Si857    Si       0.04397    0.58628    0.99551    1.000
    Si858    Si       0.06871    0.53926    0.94457    1.000
    Si859    Si       0.14993    0.54853    0.97157    1.000
    N860     N        0.22316    0.54470    0.89792    1.000
    N861     N        0.15143    0.59297    0.97442    1.000
    N862     N        0.04911    0.63512    0.09210    1.000
    Si863    Si       0.06513    0.61669    0.05585    1.000
    Si864    Si       0.99459    0.61043    0.03434    1.000
    N865     N        0.07172    0.64964    0.03007    1.000
    N866     N        0.00635    0.65281    0.03508    1.000
    N867     N        0.17175    0.61427    0.04318    1.000
    Si868    Si       0.13840    0.61101    0.07217    1.000
    Si869    Si       0.20627    0.63464    0.06330    1.000
    N870     N        0.23113    0.62553    0.09742    1.000
    N871     N        0.15639    0.60041    0.10896    1.000
    N872     N        0.23443    0.64598    0.03043    1.000
    Si873    Si       0.05215    0.60916    0.12858    1.000
    Si874    Si       0.08938    0.63096    0.17389    1.000
    N875     N        0.09276    0.60263    0.14059    1.000
    N876     N        0.01297    0.61113    0.22681    1.000
    N877     N        0.07763    0.60391    0.20634    1.000
    Si878    Si       0.01783    0.65324    0.23954    1.000
    N879     N        0.18014    0.62113    0.16906    1.000
    Si880    Si       0.19949    0.61722    0.20804    1.000
    N881     N        0.23273    0.64523    0.20802    1.000
    N882     N        0.02400    0.64043    0.28003    1.000
    N883     N        0.07783    0.61174    0.30593    1.000
    N884     N        0.01760    0.62238    0.34819    1.000
    Si885    Si       0.04572    0.63952    0.31759    1.000
    Si886    Si       0.10700    0.63624    0.28668    1.000
    Si887    Si       0.00407    0.60347    0.26931    1.000
    N888     N        0.21478    0.62342    0.32680    1.000
    N889     N        0.14581    0.63869    0.30782    1.000
    N890     N        0.12360    0.60703    0.25858    1.000
    Si891    Si       0.16372    0.61571    0.27584    1.000
    Si892    Si       0.18811    0.60884    0.35902    1.000
    N893     N        0.18362    0.63860    0.24497    1.000
    N894     N        0.06691    0.62567    0.39771    1.000
    Si895    Si       0.08592    0.61936    0.43834    1.000
    N896     N        0.09944    0.65355    0.46289    1.000
    N897     N        0.16589    0.64433    0.37253    1.000
    Si898    Si       0.21878    0.63505    0.45906    1.000
    N899     N        0.14376    0.60997    0.49711    1.000
    N900     N        0.18013    0.62975    0.43978    1.000
    Si901    Si       0.15439    0.60057    0.45657    1.000
    Si902    Si       0.09145    0.62008    0.56668    1.000
    Si903    Si       0.02152    0.61736    0.58871    1.000
    N904     N        0.07749    0.62754    0.52556    1.000
    Si905    Si       0.11083    0.63947    0.50428    1.000
    N906     N        0.11428    0.60431    0.62430    1.000
    N907     N        0.09285    0.65726    0.58945    1.000
    Si908    Si       0.15952    0.62229    0.53686    1.000
    N909     N        0.20121    0.62538    0.55035    1.000
    Si910    Si       0.21145    0.62840    0.59455    1.000
    Si911    Si       0.23263    0.61027    0.52366    1.000
    N912     N        0.13182    0.60343    0.56437    1.000
    N913     N        0.18091    0.60874    0.61783    1.000
    Si914    Si       0.10820    0.64769    0.63036    1.000
    N915     N        0.00594    0.59947    0.62742    1.000
    N916     N        0.07747    0.64631    0.66332    1.000
    N917     N        0.02423    0.61410    0.69654    1.000
    N918     N        0.09421    0.60565    0.71840    1.000
    Si919    Si       0.06660    0.61244    0.68396    1.000
    Si920    Si       0.99596    0.62110    0.66439    1.000
    N921     N        0.14939    0.65265    0.69749    1.000
    Si922    Si       0.18906    0.59897    0.65931    1.000
    N923     N        0.20844    0.62764    0.68634    1.000
    Si924    Si       0.13677    0.61459    0.71159    1.000
    Si925    Si       0.02535    0.63010    0.77398    1.000
    Si926    Si       0.07828    0.61353    0.82702    1.000
    N927     N        0.06015    0.60592    0.78851    1.000
    N928     N        0.99654    0.60193    0.75801    1.000
    N929     N        0.04784    0.61012    0.85935    1.000
    N930     N        0.09627    0.65267    0.82108    1.000
    N931     N        0.99286    0.65494    0.86882    1.000
    N932     N        0.00080    0.65472    0.80229    1.000
    N933     N        0.21888    0.62372    0.78587    1.000
    N934     N        0.14995    0.61275    0.75353    1.000
    Si935    Si       0.14948    0.65477    0.76803    1.000
    Si936    Si       0.01034    0.64022    0.95652    1.000
    N937     N        0.03358    0.62830    0.92378    1.000
    Si938    Si       0.01543    0.62091    0.88564    1.000
    Si939    Si       0.07176    0.60738    0.92898    1.000
    N940     N        0.00563    0.60720    0.98452    1.000
    N941     N        0.07720    0.60552    0.97214    1.000
    N942     N        0.11090    0.62565    0.92523    1.000
    Si943    Si       0.20426    0.62513    0.87106    1.000
    N944     N        0.22702    0.62898    0.90692    1.000
    N945     N        0.16102    0.61534    0.87834    1.000
    Si946    Si       0.11840    0.62005    0.96835    1.000
    Si947    Si       0.14033    0.64647    0.90124    1.000
    N948     N        0.12731    0.65572    0.98988    1.000
    Si949    Si       0.03994    0.67425    0.01587    1.000
    N950     N        0.00387    0.68607    0.09466    1.000
    Si951    Si       0.04609    0.67409    0.11001    1.000
    N952     N        0.06674    0.70776    0.08769    1.000
    Si953    Si       0.11298    0.66587    0.03085    1.000
    N954     N        0.11255    0.70802    0.03410    1.000
    Si955    Si       0.15812    0.68469    0.09035    1.000
    N956     N        0.19128    0.67617    0.06205    1.000
    Si957    Si       0.20764    0.68466    0.02233    1.000
    N958     N        0.13042    0.65554    0.07051    1.000
    N959     N        0.00522    0.69769    0.16078    1.000
    Si960    Si       0.04251    0.68657    0.17995    1.000
    N961     N        0.04990    0.67296    0.21940    1.000
    Si962    Si       0.11114    0.70326    0.18248    1.000
    N963     N        0.11109    0.70663    0.22536    1.000
    N964     N        0.05641    0.65593    0.15166    1.000
    N965     N        0.17779    0.68033    0.12955    1.000
    N966     N        0.11906    0.66177    0.17403    1.000
    N967     N        0.17592    0.68636    0.19851    1.000
    Si968    Si       0.21196    0.70721    0.13495    1.000
    Si969    Si       0.18527    0.68212    0.23933    1.000
    Si970    Si       0.16192    0.66116    0.16514    1.000
    Si971    Si       0.08636    0.69726    0.32437    1.000
    N972     N        0.08951    0.67659    0.28520    1.000
    N973     N        0.05915    0.66939    0.34454    1.000
    N974     N        0.99670    0.69846    0.33440    1.000
    Si975    Si       0.99827    0.66084    0.35492    1.000
    Si976    Si       0.07499    0.69485    0.24622    1.000
    N977     N        0.12352    0.69615    0.34672    1.000
    N978     N        0.19581    0.68729    0.32790    1.000
    Si979    Si       0.15698    0.67004    0.33603    1.000
    N980     N        0.16490    0.70273    0.26966    1.000
    N981     N        0.22467    0.69046    0.25698    1.000
    Si982    Si       0.23194    0.66281    0.33859    1.000
    N983     N        0.07751    0.69471    0.40976    1.000
    N984     N        0.01242    0.67120    0.39567    1.000
    Si985    Si       0.10387    0.69238    0.44246    1.000
    Si986    Si       0.05519    0.66573    0.38650    1.000
    Si987    Si       0.01495    0.71088    0.42055    1.000
    Si988    Si       0.11235    0.71239    0.38694    1.000
    Si989    Si       0.20070    0.70245    0.46455    1.000
    Si990    Si       0.16960    0.66247    0.41288    1.000
    N991     N        0.16506    0.70626    0.48760    1.000
    Si992    Si       0.23457    0.70384    0.39770    1.000
    N993     N        0.21963    0.66853    0.48337    1.000
    N994     N        0.13721    0.69175    0.41499    1.000
    N995     N        0.20221    0.69085    0.42212    1.000
    Si996    Si       0.06120    0.68465    0.59628    1.000
    N997     N        0.02693    0.66021    0.59507    1.000
    Si998    Si       0.99275    0.67809    0.61147    1.000
    Si999    Si       0.15455    0.70888    0.60815    1.000
    N1000    N        0.17647    0.70425    0.56777    1.000
    Si1001   Si       0.15627    0.69951    0.52974    1.000
    N1002    N        0.21985    0.66817    0.61112    1.000
    Si1003   Si       0.21546    0.70497    0.58734    1.000
    N1004    N        0.13938    0.66000    0.53011    1.000
    N1005    N        0.02829    0.69721    0.69447    1.000
    Si1006   Si       0.06628    0.68756    0.67477    1.000
    N1007    N        0.10166    0.69818    0.69918    1.000
    N1008    N        0.06710    0.70433    0.63540    1.000
    Si1009   Si       0.03743    0.70063    0.73643    1.000
    Si1010   Si       0.11073    0.71366    0.73923    1.000
    N1011    N        0.18081    0.70565    0.69007    1.000
    N1012    N        0.14088    0.67628    0.63537    1.000
    N1013    N        0.23750    0.67112    0.71688    1.000
    Si1014   Si       0.19233    0.66615    0.70878    1.000
    Si1015   Si       0.13966    0.69377    0.67693    1.000
    Si1016   Si       0.00838    0.69844    0.80334    1.000
    Si1017   Si       0.07731    0.67619    0.78905    1.000
    N1018    N        0.04987    0.70545    0.81153    1.000
    N1019    N        0.04839    0.66283    0.75535    1.000
    N1020    N        0.11463    0.67991    0.76550    1.000
    N1021    N        0.00515    0.71201    0.76176    1.000
    Si1022   Si       0.20523    0.66230    0.80368    1.000
    Si1023   Si       0.12809    0.67912    0.83178    1.000
    N1024    N        0.21401    0.66008    0.84695    1.000
    N1025    N        0.16260    0.66201    0.81113    1.000
    N1026    N        0.23545    0.69229    0.78905    1.000
    N1027    N        0.18321    0.67600    0.75228    1.000
    Si1028   Si       0.00907    0.69908    0.94417    1.000
    N1029    N        0.03254    0.67458    0.97253    1.000
    N1030    N        0.01177    0.71287    0.90409    1.000
    N1031    N        0.16700    0.66377    0.93220    1.000
    N1032    N        0.22862    0.65577    0.96759    1.000
    N1033    N        0.13451    0.67795    0.87320    1.000
    Si1034   Si       0.15012    0.68575    0.96711    1.000
    N1035    N        0.22652    0.69688    0.91093    1.000
    Si1036   Si       0.20864    0.65957    0.93019    1.000
    N1037    N        0.18036    0.70612    0.99471    1.000
    N1038    N        0.00751    0.75647    0.07845    1.000
    Si1039   Si       0.10328    0.72648    0.07169    1.000
    Si1040   Si       0.02689    0.71773    0.07329    1.000
    N1041    N        0.03287    0.71475    0.02928    1.000
    Si1042   Si       0.03425    0.74353    0.99684    1.000
    Si1043   Si       0.11606    0.73720    0.00223    1.000
    N1044    N        0.21704    0.73220    0.09968    1.000
    N1045    N        0.14691    0.76697    0.00680    1.000
    N1046    N        0.13793    0.72272    0.09831    1.000
    N1047    N        0.23491    0.71790    0.03370    1.000
    Si1048   Si       0.19603    0.77104    0.09673    1.000
    N1049    N        0.02829    0.76137    0.14656    1.000
    Si1050   Si       0.99693    0.74030    0.16846    1.000
    Si1051   Si       0.06689    0.76143    0.16557    1.000
    N1052    N        0.00425    0.74650    0.21116    1.000
    N1053    N        0.07209    0.71865    0.17374    1.000
    Si1054   Si       0.03140    0.77469    0.23450    1.000
    N1055    N        0.09377    0.76875    0.13183    1.000
    Si1056   Si       0.20207    0.77364    0.24471    1.000
    N1057    N        0.20781    0.73737    0.16601    1.000
    Si1058   Si       0.13453    0.75324    0.12909    1.000
    N1059    N        0.17063    0.74893    0.22795    1.000
    Si1060   Si       0.17371    0.72997    0.18916    1.000
    N1061    N        0.13737    0.73230    0.16648    1.000
    Si1062   Si       0.07406    0.75574    0.28687    1.000
    Si1063   Si       0.02163    0.73339    0.34489    1.000
    N1064    N        0.06112    0.73517    0.32427    1.000
    N1065    N        0.05307    0.73427    0.25178    1.000
    N1066    N        0.99192    0.76695    0.34751    1.000
    N1067    N        0.11651    0.75560    0.27885    1.000
    N1068    N        0.22252    0.75060    0.27526    1.000
    N1069    N        0.17488    0.74844    0.31514    1.000
    Si1070   Si       0.19269    0.76013    0.35162    1.000
    Si1071   Si       0.13776    0.72988    0.24979    1.000
    Si1072   Si       0.19879    0.71655    0.29338    1.000
    N1073    N        0.03054    0.73766    0.38954    1.000
    N1074    N        0.09806    0.75526    0.38630    1.000
    N1075    N        0.03254    0.72208    0.45819    1.000
    Si1076   Si       0.06562    0.75142    0.46534    1.000
    N1077    N        0.10310    0.73210    0.46027    1.000
    Si1078   Si       0.05839    0.76901    0.39729    1.000
    N1079    N        0.99199    0.77037    0.48027    1.000
    Si1080   Si       0.01412    0.73663    0.49635    1.000
    N1081    N        0.22222    0.73789    0.47351    1.000
    N1082    N        0.22720    0.74044    0.37295    1.000
    Si1083   Si       0.13774    0.73932    0.48561    1.000
    N1084    N        0.16122    0.77386    0.47915    1.000
    Si1085   Si       0.01599    0.73233    0.56570    1.000
    Si1086   Si       0.09644    0.73407    0.55789    1.000
    N1087    N        0.05120    0.75876    0.50641    1.000
    N1088    N        0.99413    0.71845    0.52944    1.000
    N1089    N        0.99349    0.71958    0.60018    1.000
    N1090    N        0.05707    0.71700    0.56759    1.000
    N1091    N        0.11905    0.72751    0.59360    1.000
    N1092    N        0.12423    0.72951    0.52566    1.000
    N1093    N        0.18707    0.73743    0.62425    1.000
    N1094    N        0.07210    0.77096    0.63284    1.000
    Si1095   Si       0.09748    0.73616    0.63253    1.000
    N1096    N        0.06975    0.72812    0.74574    1.000
    N1097    N        0.21436    0.73905    0.73754    1.000
    N1098    N        0.19033    0.77832    0.67653    1.000
    Si1099   Si       0.16078    0.76606    0.64626    1.000
    Si1100   Si       0.22787    0.75890    0.63088    1.000
    N1101    N        0.13153    0.73583    0.65736    1.000
    Si1102   Si       0.20449    0.73971    0.69596    1.000
    Si1103   Si       0.07079    0.73891    0.82864    1.000
    N1104    N        0.04823    0.75815    0.86046    1.000
    N1105    N        0.10998    0.72001    0.83254    1.000
    Si1106   Si       0.06494    0.77036    0.75801    1.000
    N1107    N        0.06846    0.77325    0.80159    1.000
    Si1108   Si       0.23312    0.73057    0.80983    1.000
    N1109    N        0.18968    0.73667    0.80377    1.000
    Si1110   Si       0.18427    0.72008    0.76302    1.000
    Si1111   Si       0.16182    0.76321    0.82691    1.000
    N1112    N        0.14569    0.73777    0.74815    1.000
    N1113    N        0.07519    0.74731    0.98854    1.000
    N1114    N        0.09155    0.72526    0.90323    1.000
    N1115    N        0.04863    0.76429    0.93047    1.000
    Si1116   Si       0.04996    0.73626    0.89703    1.000
    Si1117   Si       0.09144    0.74559    0.94489    1.000
    N1118    N        0.00102    0.73699    0.96657    1.000
    Si1119   Si       0.99853    0.77211    0.93728    1.000
    N1120    N        0.24241    0.76544    0.90414    1.000
    N1121    N        0.12378    0.71832    0.96309    1.000
    Si1122   Si       0.18001    0.74956    0.98269    1.000
    Si1123   Si       0.15607    0.76877    0.91351    1.000
    Si1124   Si       0.22487    0.73615    0.93041    1.000
    N1125    N        0.18489    0.74846    0.93864    1.000
    N1126    N        0.15185    0.75346    0.87224    1.000
    Si1127   Si       0.12397    0.72031    0.87604    1.000
    Si1128   Si       0.08993    0.79642    0.09882    1.000
    N1129    N        0.04942    0.80904    0.09472    1.000
    N1130    N        0.02149    0.78139    0.01358    1.000
    Si1131   Si       0.01807    0.78470    0.11143    1.000
    N1132    N        0.10657    0.77085    0.06646    1.000
    N1133    N        0.11839    0.82767    0.10918    1.000
    Si1134   Si       0.13920    0.79062    0.04491    1.000
    N1135    N        0.17829    0.79514    0.06471    1.000
    N1136    N        0.22692    0.79752    0.10950    1.000
    N1137    N        0.12758    0.82922    0.02934    1.000
    Si1138   Si       0.16204    0.82801    0.11832    1.000
    N1139    N        0.21590    0.77371    0.99780    1.000
    Si1140   Si       0.09105    0.82249    0.21093    1.000
    N1141    N        0.06315    0.78793    0.20230    1.000
    N1142    N        0.16497    0.78246    0.12671    1.000
    N1143    N        0.23423    0.77959    0.21543    1.000
    N1144    N        0.13546    0.82514    0.21804    1.000
    N1145    N        0.05496    0.79157    0.27255    1.000
    N1146    N        0.99175    0.79940    0.25191    1.000
    N1147    N        0.13686    0.79787    0.33133    1.000
    N1148    N        0.21205    0.79693    0.33492    1.000
    N1149    N        0.17658    0.80123    0.26920    1.000
    Si1150   Si       0.23656    0.78169    0.30215    1.000
    Si1151   Si       0.15046    0.77703    0.29646    1.000
    Si1152   Si       0.00273    0.80173    0.37023    1.000
    N1153    N        0.04710    0.80174    0.37260    1.000
    N1154    N        0.98864    0.79519    0.41084    1.000
    N1155    N        0.10875    0.82518    0.38357    1.000
    Si1156   Si       0.00904    0.79429    0.44887    1.000
    N1157    N        0.05290    0.78377    0.43973    1.000
    N1158    N        0.09970    0.81987    0.48121    1.000
    Si1159   Si       0.06097    0.82532    0.46199    1.000
    N1160    N        0.01727    0.83239    0.46930    1.000
    Si1161   Si       0.17694    0.80428    0.41130    1.000
    Si1162   Si       0.12403    0.78541    0.37121    1.000
    N1163    N        0.14960    0.82793    0.43485    1.000
    Si1164   Si       0.20338    0.77727    0.47153    1.000
    N1165    N        0.21258    0.79150    0.43105    1.000
    N1166    N        0.16359    0.77244    0.38446    1.000
    Si1167   Si       0.13892    0.81039    0.47381    1.000
    Si1168   Si       0.05365    0.78486    0.53996    1.000
    Si1169   Si       0.00130    0.80719    0.59180    1.000
    N1170    N        0.09216    0.77676    0.55785    1.000
    N1171    N        0.01893    0.77632    0.56601    1.000
    N1172    N        0.05812    0.82741    0.53010    1.000
    Si1173   Si       0.13020    0.79519    0.57044    1.000
    Si1174   Si       0.18701    0.81796    0.52599    1.000
    Si1175   Si       0.18777    0.81543    0.58876    1.000
    N1176    N        0.17073    0.79115    0.55440    1.000
    N1177    N        0.22231    0.79509    0.60601    1.000
    N1178    N        0.14855    0.79322    0.61328    1.000
    N1179    N        0.21887    0.80646    0.49958    1.000
    N1180    N        0.02385    0.82333    0.62666    1.000
    Si1181   Si       0.02472    0.81907    0.71161    1.000
    N1182    N        0.06071    0.81471    0.68494    1.000
    Si1183   Si       0.06304    0.81215    0.64261    1.000
    Si1184   Si       0.09893    0.81682    0.70402    1.000
    N1185    N        0.09793    0.79133    0.73961    1.000
    N1186    N        0.02577    0.78564    0.74069    1.000
    Si1187   Si       0.17033    0.81180    0.69671    1.000
    N1188    N        0.16895    0.80446    0.74041    1.000
    N1189    N        0.13203    0.81125    0.67736    1.000
    Si1190   Si       0.13451    0.83393    0.63561    1.000
    Si1191   Si       0.09949    0.80438    0.81127    1.000
    N1192    N        0.02057    0.82071    0.82841    1.000
    Si1193   Si       0.02932    0.79618    0.86514    1.000
    N1194    N        0.11324    0.81592    0.85290    1.000
    N1195    N        0.13530    0.78432    0.79798    1.000
    N1196    N        0.18387    0.80043    0.83677    1.000
    Si1197   Si       0.15635    0.81695    0.86619    1.000
    Si1198   Si       0.13669    0.77902    0.75515    1.000
    N1199    N        0.99580    0.78909    0.89481    1.000
    N1200    N        0.01171    0.81258    0.95460    1.000
    N1201    N        0.05656    0.81855    0.89068    1.000
    Si1202   Si       0.04858    0.80900    0.93125    1.000
    N1203    N        0.07233    0.82371    0.96480    1.000
    Si1204   Si       0.03416    0.81902    0.99104    1.000
    Si1205   Si       0.11595    0.82463    0.94465    1.000
    N1206    N        0.22326    0.82117    0.94890    1.000
    Si1207   Si       0.22706    0.81661    0.99197    1.000
    N1208    N        0.11884    0.77888    0.93530    1.000
    N1209    N        0.16765    0.81104    0.90643    1.000
    N1210    N        0.01424    0.84948    0.01613    1.000
    N1211    N        0.06822    0.86077    0.05255    1.000
    Si1212   Si       0.04279    0.84959    0.08572    1.000
    N1213    N        0.00004    0.85706    0.08559    1.000
    Si1214   Si       0.10395    0.86702    0.02911    1.000
    Si1215   Si       0.04349    0.88093    0.02085    1.000
    N1216    N        0.17897    0.85867    0.08935    1.000
    Si1217   Si       0.16061    0.85186    0.00502    1.000
    N1218    N        0.19864    0.83922    0.01626    1.000
    Si1219   Si       0.19982    0.83374    0.05821    1.000
    N1220    N        0.14228    0.88795    0.01842    1.000
    N1221    N        0.06203    0.87300    0.11929    1.000
    N1222    N        0.01318    0.86806    0.22967    1.000
    N1223    N        0.09841    0.84512    0.17363    1.000
    Si1224   Si       0.10213    0.86065    0.13203    1.000
    N1225    N        0.99457    0.87395    0.15845    1.000
    Si1226   Si       0.05414    0.88243    0.23413    1.000
    Si1227   Si       0.99231    0.88997    0.20076    1.000
    N1228    N        0.07595    0.84760    0.24421    1.000
    Si1229   Si       0.20128    0.87904    0.15616    1.000
    N1230    N        0.24071    0.86394    0.14047    1.000
    Si1231   Si       0.22600    0.88091    0.22801    1.000
    N1232    N        0.17052    0.84958    0.15543    1.000
    Si1233   Si       0.14096    0.85423    0.18638    1.000
    N1234    N        0.18416    0.87195    0.23991    1.000
    Si1235   Si       0.01599    0.86725    0.33287    1.000
    N1236    N        0.02393    0.84885    0.29510    1.000
    N1237    N        0.04893    0.87288    0.36115    1.000
    Si1238   Si       0.99738    0.84291    0.26267    1.000
    N1239    N        0.08751    0.83882    0.32053    1.000
    Si1240   Si       0.07198    0.83518    0.36219    1.000
    N1241    N        0.98999    0.84066    0.35710    1.000
    Si1242   Si       0.06352    0.83222    0.28429    1.000
    N1243    N        0.23742    0.85690    0.32977    1.000
    Si1244   Si       0.13108    0.83996    0.32290    1.000
    N1245    N        0.14062    0.85769    0.28323    1.000
    N1246    N        0.16471    0.86021    0.34242    1.000
    Si1247   Si       0.16079    0.83778    0.25229    1.000
    Si1248   Si       0.20316    0.83729    0.34591    1.000
    N1249    N        0.06942    0.85830    0.43666    1.000
    Si1250   Si       0.99878    0.86844    0.48560    1.000
    Si1251   Si       0.11235    0.85789    0.41584    1.000
    Si1252   Si       0.19747    0.88092    0.39804    1.000
    N1253    N        0.16170    0.84182    0.49626    1.000
    N1254    N        0.12785    0.88584    0.44731    1.000
    N1255    N        0.20154    0.83759    0.38974    1.000
    Si1256   Si       0.16384    0.86284    0.45686    1.000
    N1257    N        0.19739    0.88112    0.44029    1.000
    Si1258   Si       0.03280    0.85785    0.54864    1.000
    Si1259   Si       0.08417    0.87865    0.61059    1.000
    Si1260   Si       0.09875    0.84337    0.52021    1.000
    N1261    N        0.05157    0.88023    0.57906    1.000
    N1262    N        0.99696    0.84025    0.56515    1.000
    N1263    N        0.02707    0.88460    0.51504    1.000
    N1264    N        0.09637    0.88499    0.51166    1.000
    N1265    N        0.12572    0.83611    0.55324    1.000
    Si1266   Si       0.14868    0.87029    0.56853    1.000
    N1267    N        0.16695    0.85182    0.60416    1.000
    N1268    N        0.20621    0.84268    0.55615    1.000
    Si1269   Si       0.21773    0.88402    0.55059    1.000
    N1270    N        0.23514    0.87760    0.50995    1.000
    N1271    N        0.09452    0.83721    0.62101    1.000
    N1272    N        0.03334    0.85460    0.73480    1.000
    N1273    N        0.99842    0.87817    0.67414    1.000
    N1274    N        0.10371    0.86148    0.71830    1.000
    Si1275   Si       0.10595    0.88422    0.67927    1.000
    N1276    N        0.07127    0.88554    0.65356    1.000
    Si1277   Si       0.99175    0.83990    0.65223    1.000
    Si1278   Si       0.17712    0.88310    0.63160    1.000
    N1279    N        0.14241    0.87221    0.65776    1.000
    Si1280   Si       0.22706    0.86808    0.68613    1.000
    N1281    N        0.19646    0.84543    0.70463    1.000
    N1282    N        0.21802    0.87360    0.64313    1.000
    N1283    N        0.07406    0.86989    0.85120    1.000
    Si1284   Si       0.04983    0.85242    0.81921    1.000
    N1285    N        0.02458    0.88076    0.79498    1.000
    Si1286   Si       0.07389    0.86039    0.75313    1.000
    N1287    N        0.07947    0.83849    0.79047    1.000
    Si1288   Si       0.00704    0.88218    0.75344    1.000
    N1289    N        0.18277    0.85530    0.78811    1.000
    N1290    N        0.16976    0.85860    0.85758    1.000
    Si1291   Si       0.19544    0.84122    0.82697    1.000
    Si1292   Si       0.19542    0.83790    0.74940    1.000
    N1293    N        0.23889    0.84153    0.75548    1.000
    Si1294   Si       0.09091    0.84026    0.87914    1.000
    N1295    N        0.11159    0.85658    0.91429    1.000
    N1296    N        0.99264    0.86040    0.89108    1.000
    N1297    N        0.15236    0.83666    0.96507    1.000
    N1298    N        0.19149    0.87902    0.92281    1.000
    Si1299   Si       0.18641    0.83746    0.93627    1.000
    N1300    N        0.02172    0.91555    0.03542    1.000
    Si1301   Si       0.03086    0.93942    0.07201    1.000
    N1302    N        0.02073    0.92631    0.11359    1.000
    N1303    N        0.07270    0.94205    0.08549    1.000
    N1304    N        0.08045    0.89298    0.99928    1.000
    N1305    N        0.15426    0.92788    0.07250    1.000
    Si1306   Si       0.14658    0.92925    0.02975    1.000
    Si1307   Si       0.22238    0.93713    0.00744    1.000
    Si1308   Si       0.16217    0.89695    0.10142    1.000
    N1309    N        0.17894    0.94245    0.00371    1.000
    Si1310   Si       0.06456    0.91502    0.12054    1.000
    Si1311   Si       0.05531    0.93627    0.19079    1.000
    N1312    N        0.08246    0.92817    0.15750    1.000
    N1313    N        0.01271    0.92727    0.18681    1.000
    N1314    N        0.07310    0.91820    0.22511    1.000
    Si1315   Si       0.99553    0.91601    0.14763    1.000
    Si1316   Si       0.10217    0.94335    0.24514    1.000
    N1317    N        0.18667    0.91380    0.13578    1.000
    N1318    N        0.20858    0.90288    0.19154    1.000
    N1319    N        0.14256    0.89836    0.19076    1.000
    Si1320   Si       0.12594    0.92477    0.15957    1.000
    Si1321   Si       0.16977    0.91301    0.22126    1.000
    Si1322   Si       0.19478    0.94234    0.17135    1.000
    N1323    N        0.12450    0.89752    0.12421    1.000
    N1324    N        0.99780    0.90371    0.32356    1.000
    Si1325   Si       0.10408    0.94565    0.31480    1.000
    Si1326   Si       0.23185    0.91746    0.29784    1.000
    N1327    N        0.12696    0.90930    0.32008    1.000
    N1328    N        0.18789    0.92473    0.29936    1.000
    N1329    N        0.13904    0.92119    0.25128    1.000
    Si1330   Si       0.15398    0.89867    0.28730    1.000
    Si1331   Si       0.14598    0.89905    0.35825    1.000
    Si1332   Si       0.07239    0.90937    0.37262    1.000
    N1333    N        0.04892    0.92314    0.40612    1.000
    Si1334   Si       0.04562    0.89701    0.44136    1.000
    N1335    N        0.06676    0.92204    0.47099    1.000
    Si1336   Si       0.11141    0.91005    0.47819    1.000
    N1337    N        0.11085    0.89063    0.38391    1.000
    N1338    N        0.00309    0.89433    0.44965    1.000
    N1339    N        0.17706    0.91669    0.38201    1.000
    Si1340   Si       0.03806    0.92455    0.58925    1.000
    Si1341   Si       0.10111    0.93064    0.57459    1.000
    Si1342   Si       0.06135    0.90851    0.51243    1.000
    N1343    N        0.06935    0.93597    0.54461    1.000
    N1344    N        0.07574    0.93416    0.61090    1.000
    N1345    N        0.01127    0.90777    0.61989    1.000
    Si1346   Si       0.17034    0.93800    0.57543    1.000
    N1347    N        0.17694    0.90073    0.55354    1.000
    N1348    N        0.11812    0.89382    0.58510    1.000
    N1349    N        0.17190    0.92366    0.61639    1.000
    Si1350   Si       0.03186    0.90182    0.65845    1.000
    N1351    N        0.04048    0.94325    0.66837    1.000
    N1352    N        0.01579    0.92393    0.74310    1.000
    N1353    N        0.11138    0.92178    0.69923    1.000
    N1354    N        0.17393    0.94936    0.68092    1.000
    N1355    N        0.16228    0.90511    0.73899    1.000
    Si1356   Si       0.11816    0.90039    0.73556    1.000
    N1357    N        0.22668    0.91187    0.69499    1.000
    Si1358   Si       0.19190    0.92771    0.71339    1.000
    N1359    N        0.23295    0.94842    0.63295    1.000
    Si1360   Si       0.01526    0.91745    0.81671    1.000
    N1361    N        0.02508    0.91248    0.85850    1.000
    N1362    N        0.08191    0.90295    0.75947    1.000
    Si1363   Si       0.05493    0.93537    0.75958    1.000
    N1364    N        0.09106    0.93666    0.85159    1.000
    N1365    N        0.04306    0.94658    0.80090    1.000
    Si1366   Si       0.06609    0.90667    0.86931    1.000
    Si1367   Si       0.17823    0.89727    0.77913    1.000
    N1368    N        0.22212    0.90660    0.78730    1.000
    N1369    N        0.16838    0.92955    0.80543    1.000
    Si1370   Si       0.20920    0.92966    0.82336    1.000
    N1371    N        0.20774    0.91662    0.86281    1.000
    Si1372   Si       0.23280    0.94856    0.77168    1.000
    Si1373   Si       0.99584    0.90273    0.88827    1.000
    Si1374   Si       0.09366    0.93100    0.98447    1.000
    N1375    N        0.00798    0.91830    0.92683    1.000
    N1376    N        0.07541    0.91466    0.91109    1.000
    Si1377   Si       0.04543    0.93918    0.92969    1.000
    Si1378   Si       0.11680    0.90054    0.92175    1.000
    N1379    N        0.12752    0.92539    0.95612    1.000
    Si1380   Si       0.22006    0.91046    0.93748    1.000
    Si1381   Si       0.17733    0.89345    0.88295    1.000
    N1382    N        0.23480    0.90698    0.97929    1.000
    N1383    N        0.14413    0.91774    0.89249    1.000
    N1384    N        0.19999    0.94950    0.94007    1.000
    Si1385   Si       0.16290    0.95247    0.96243    1.000
    Si1386   Si       0.12292    0.95056    0.87523    1.000
    N1387    N        0.01693    0.97845    0.06462    1.000
    Si1388   Si       0.08978    0.98069    0.09585    1.000
    N1389    N        0.08412    0.00343    0.05917    1.000
    N1390    N        0.11092    0.95319    0.01736    1.000
    Si1391   Si       0.11602    0.99579    0.03006    1.000
    N1392    N        0.20589    0.98055    0.09347    1.000
    Si1393   Si       0.16651    0.96870    0.08216    1.000
    N1394    N        0.13177    0.98153    0.10857    1.000
    N1395    N        0.15843    0.99008    0.04319    1.000
    Si1396   Si       0.18389    0.99253    0.00848    1.000
    N1397    N        0.06630    0.00441    0.12845    1.000
    N1398    N        0.99674    0.99302    0.16448    1.000
    Si1399   Si       0.00345    0.97020    0.20304    1.000
    N1400    N        0.04903    0.97814    0.19591    1.000
    N1401    N        0.10883    0.98082    0.22182    1.000
    Si1402   Si       0.03763    0.00454    0.16032    1.000
    N1403    N        0.15288    0.96191    0.16943    1.000
    Si1404   Si       0.14592    0.99857    0.14563    1.000
    Si1405   Si       0.21531    0.99912    0.13125    1.000
    N1406    N        0.22515    0.97164    0.16364    1.000
    Si1407   Si       0.15132    0.97964    0.21232    1.000
    N1408    N        0.18740    0.95467    0.22001    1.000
    Si1409   Si       0.04184    0.97305    0.27287    1.000
    Si1410   Si       0.05100    0.98093    0.34418    1.000
    N1411    N        0.02179    0.97113    0.31288    1.000
    N1412    N        0.08002    0.95385    0.27964    1.000
    N1413    N        0.00928    0.95835    0.24790    1.000
    N1414    N        0.07685    0.94580    0.34852    1.000
    N1415    N        0.18994    0.97907    0.35241    1.000
    N1416    N        0.13458    0.97449    0.31383    1.000
    Si1417   Si       0.17908    0.96673    0.31216    1.000
    N1418    N        0.19060    0.99439    0.27913    1.000
    Si1419   Si       0.21451    0.97368    0.24965    1.000
    N1420    N        0.02722    0.98881    0.37957    1.000
    Si1421   Si       0.02232    0.95917    0.41173    1.000
    Si1422   Si       0.07889    0.96834    0.45965    1.000
    Si1423   Si       0.01393    0.99717    0.47912    1.000
    N1424    N        0.03523    0.97472    0.45084    1.000
    N1425    N        0.10110    0.98719    0.42510    1.000
    Si1426   Si       0.19637    0.95676    0.39006    1.000
    N1427    N        0.17605    0.97401    0.42292    1.000
    Si1428   Si       0.13947    0.97901    0.44353    1.000
    N1429    N        0.23024    0.99673    0.45777    1.000
    N1430    N        0.12028    0.95285    0.47286    1.000
    N1431    N        0.23891    0.95815    0.39539    1.000
    Si1432   Si       0.05393    0.97561    0.54937    1.000
    N1433    N        0.02678    0.96514    0.58034    1.000
    Si1434   Si       0.01666    0.99681    0.60637    1.000
    N1435    N        0.02938    0.99907    0.51986    1.000
    N1436    N        0.08736    0.00227    0.55121    1.000
    N1437    N        0.20388    0.96486    0.57352    1.000
    N1438    N        0.13296    0.96024    0.57145    1.000
    Si1439   Si       0.12880    0.00518    0.56760    1.000
    N1440    N        0.23721    0.00620    0.53026    1.000
    Si1441   Si       0.20652    0.00637    0.56112    1.000
    Si1442   Si       0.99182    0.95864    0.72881    1.000
    Si1443   Si       0.07259    0.96037    0.64337    1.000
    N1444    N        0.00962    0.99356    0.70571    1.000
    N1445    N        0.05042    0.99682    0.63453    1.000
    Si1446   Si       0.00244    0.96654    0.66875    1.000
    N1447    N        0.11187    0.97639    0.65591    1.000
    N1448    N        0.06626    0.97286    0.74150    1.000
    Si1449   Si       0.04397    0.00677    0.72960    1.000
    N1450    N        0.20044    0.95921    0.74276    1.000
    N1451    N        0.17603    0.99597    0.63117    1.000
    N1452    N        0.13534    0.98170    0.72577    1.000
    Si1453   Si       0.13121    0.95943    0.69005    1.000
    Si1454   Si       0.18895    0.95542    0.64107    1.000
    Si1455   Si       0.17495    0.99365    0.74196    1.000
    Si1456   Si       0.13500    0.00944    0.64127    1.000
    Si1457   Si       0.07397    0.96499    0.82339    1.000
    Si1458   Si       0.10428    0.98761    0.75430    1.000
    N1459    N        0.10741    0.97129    0.79466    1.000
    N1460    N        0.06479    0.00036    0.84319    1.000
    N1461    N        0.14840    0.97856    0.85259    1.000
    Si1462   Si       0.14809    0.96780    0.81008    1.000
    N1463    N        0.16603    0.99913    0.78631    1.000
    N1464    N        0.22692    0.96508    0.81243    1.000
    Si1465   Si       0.23903    0.00628    0.82331    1.000
    Si1466   Si       0.03111    0.98307    0.98172    1.000
    Si1467   Si       0.06546    0.00129    0.88626    1.000
    Si1468   Si       0.00041    0.99612    0.91583    1.000
    N1469    N        0.10657    0.98877    0.89528    1.000
    N1470    N        0.03828    0.97794    0.90984    1.000
    N1471    N        0.99229    0.96307    0.98814    1.000
    N1472    N        0.06045    0.95270    0.96928    1.000
    N1473    N        0.16255    0.99548    0.97015    1.000
    Si1474   Si       0.22793    0.98370    0.94764    1.000
    N1475    N        0.22947    0.97982    0.99087    1.000
    N1476    N        0.32698    0.03219    0.03137    1.000
    Si1477   Si       0.34038    0.05071    0.10353    1.000
    N1478    N        0.31269    0.01581    0.09986    1.000
    Si1479   Si       0.30210    0.06299    0.01342    1.000
    Si1480   Si       0.24650    0.01497    0.01018    1.000
    Si1481   Si       0.24209    0.06695    0.11257    1.000
    N1482    N        0.48120    0.06068    0.10837    1.000
    Si1483   Si       0.37121    0.03902    0.04193    1.000
    N1484    N        0.37482    0.03047    0.08311    1.000
    Si1485   Si       0.48086    0.01892    0.09660    1.000
    Si1486   Si       0.40345    0.01942    0.11686    1.000
    N1487    N        0.40384    0.01539    0.02856    1.000
    N1488    N        0.24813    0.02519    0.12531    1.000
    Si1489   Si       0.33728    0.03200    0.22157    1.000
    N1490    N        0.29770    0.04602    0.22946    1.000
    N1491    N        0.32773    0.06426    0.14455    1.000
    Si1492   Si       0.27222    0.01678    0.24868    1.000
    N1493    N        0.48617    0.05062    0.20037    1.000
    N1494    N        0.41550    0.02951    0.19987    1.000
    Si1495   Si       0.45281    0.03307    0.21938    1.000
    Si1496   Si       0.36207    0.05204    0.16628    1.000
    N1497    N        0.39437    0.05405    0.13861    1.000
    N1498    N        0.25589    0.03492    0.28514    1.000
    N1499    N        0.29692    0.04336    0.34033    1.000
    Si1500   Si       0.25713    0.02821    0.32920    1.000
    N1501    N        0.35949    0.02518    0.25842    1.000
    N1502    N        0.40797    0.04650    0.31199    1.000
    Si1503   Si       0.46786    0.05013    0.29156    1.000
    Si1504   Si       0.39903    0.04063    0.26714    1.000
    N1505    N        0.44332    0.05443    0.25657    1.000
    N1506    N        0.46500    0.01663    0.32091    1.000
    N1507    N        0.28801    0.03192    0.48346    1.000
    N1508    N        0.35457    0.05367    0.45128    1.000
    Si1509   Si       0.24615    0.02640    0.48882    1.000
    N1510    N        0.35222    0.06340    0.37976    1.000
    Si1511   Si       0.48585    0.06901    0.40149    1.000
    N1512    N        0.39980    0.03132    0.48933    1.000
    Si1513   Si       0.37089    0.02262    0.37911    1.000
    N1514    N        0.45899    0.04918    0.43161    1.000
    N1515    N        0.40089    0.02905    0.41467    1.000
    Si1516   Si       0.38174    0.01812    0.45244    1.000
    Si1517   Si       0.36760    0.06578    0.49414    1.000
    N1518    N        0.29296    0.03268    0.56596    1.000
    N1519    N        0.34313    0.04164    0.52433    1.000
    Si1520   Si       0.33741    0.02543    0.56324    1.000
    N1521    N        0.35987    0.04880    0.59332    1.000
    Si1522   Si       0.25580    0.05847    0.56287    1.000
    Si1523   Si       0.30527    0.06223    0.50963    1.000
    N1524    N        0.45302    0.04516    0.52355    1.000
    Si1525   Si       0.40019    0.03490    0.59780    1.000
    Si1526   Si       0.42082    0.01480    0.52157    1.000
    N1527    N        0.40877    0.00984    0.56253    1.000
    N1528    N        0.42626    0.06117    0.62060    1.000
    Si1529   Si       0.25046    0.03342    0.69865    1.000
    N1530    N        0.29154    0.04471    0.69131    1.000
    Si1531   Si       0.31606    0.04146    0.65711    1.000
    N1532    N        0.34904    0.06012    0.71600    1.000
    Si1533   Si       0.34457    0.01790    0.71687    1.000
    N1534    N        0.29756    0.01401    0.63182    1.000
    N1535    N        0.47345    0.01658    0.66290    1.000
    Si1536   Si       0.44484    0.04926    0.65780    1.000
    N1537    N        0.40452    0.03759    0.67794    1.000
    N1538    N        0.32277    0.04715    0.84298    1.000
    Si1539   Si       0.28208    0.02247    0.76122    1.000
    N1540    N        0.27608    0.01384    0.80189    1.000
    N1541    N        0.29165    0.06543    0.75669    1.000
    Si1542   Si       0.31333    0.01018    0.82359    1.000
    N1543    N        0.39353    0.03143    0.84969    1.000
    Si1544   Si       0.38475    0.02079    0.80814    1.000
    N1545    N        0.47717    0.05174    0.85810    1.000
    N1546    N        0.42157    0.01320    0.78675    1.000
    N1547    N        0.37079    0.05953    0.79218    1.000
    N1548    N        0.48443    0.03010    0.79479    1.000
    Si1549   Si       0.41840    0.02528    0.74385    1.000
    N1550    N        0.27409    0.04060    0.98743    1.000
    N1551    N        0.29078    0.03557    0.90911    1.000
    Si1552   Si       0.26561    0.04862    0.94405    1.000
    Si1553   Si       0.31817    0.06251    0.88524    1.000
    N1554    N        0.35858    0.05832    0.90170    1.000
    N1555    N        0.40149    0.04845    0.96537    1.000
    Si1556   Si       0.38249    0.03410    0.93022    1.000
    N1557    N        0.46724    0.02879    0.99371    1.000
    N1558    N        0.42046    0.01557    0.90812    1.000
    N1559    N        0.48430    0.04534    0.92308    1.000
    Si1560   Si       0.42527    0.02132    0.99003    1.000
    Si1561   Si       0.45162    0.04841    0.89438    1.000
    Si1562   Si       0.30380    0.10150    0.07772    1.000
    N1563    N        0.28155    0.08263    0.04634    1.000
    N1564    N        0.34615    0.08794    0.07922    1.000
    N1565    N        0.27893    0.08789    0.11124    1.000
    Si1566   Si       0.24284    0.10091    0.04561    1.000
    N1567    N        0.38293    0.07775    0.02737    1.000
    N1568    N        0.46950    0.08043    0.04267    1.000
    N1569    N        0.41952    0.10849    0.08506    1.000
    Si1570   Si       0.46073    0.09167    0.08429    1.000
    Si1571   Si       0.38206    0.10695    0.06367    1.000
    Si1572   Si       0.46468    0.11150    0.00945    1.000
    Si1573   Si       0.29962    0.09613    0.14834    1.000
    Si1574   Si       0.28852    0.08761    0.22385    1.000
    N1575    N        0.27495    0.09819    0.18332    1.000
    N1576    N        0.31989    0.11314    0.24091    1.000
    N1577    N        0.35408    0.06958    0.20557    1.000
    N1578    N        0.25329    0.09593    0.24630    1.000
    Si1579   Si       0.35974    0.10533    0.22852    1.000
    N1580    N        0.44333    0.10754    0.20918    1.000
    Si1581   Si       0.48435    0.09554    0.19826    1.000
    N1582    N        0.34143    0.08758    0.31263    1.000
    Si1583   Si       0.32296    0.07663    0.34917    1.000
    N1584    N        0.29848    0.11243    0.35782    1.000
    N1585    N        0.24423    0.09740    0.31507    1.000
    Si1586   Si       0.23679    0.07463    0.27868    1.000
    Si1587   Si       0.37504    0.10898    0.29882    1.000
    N1588    N        0.40004    0.11172    0.33332    1.000
    N1589    N        0.46389    0.08885    0.31322    1.000
    N1590    N        0.38780    0.09023    0.26118    1.000
    Si1591   Si       0.42823    0.07625    0.33477    1.000
    Si1592   Si       0.43075    0.09716    0.24934    1.000
    N1593    N        0.32855    0.11589    0.42412    1.000
    Si1594   Si       0.35615    0.08315    0.41996    1.000
    N1595    N        0.33227    0.09690    0.49284    1.000
    Si1596   Si       0.42274    0.06527    0.41158    1.000
    N1597    N        0.44584    0.07884    0.37652    1.000
    N1598    N        0.39681    0.09621    0.42588    1.000
    Si1599   Si       0.34532    0.08707    0.60608    1.000
    N1600    N        0.26933    0.08002    0.52640    1.000
    N1601    N        0.32041    0.11008    0.57940    1.000
    N1602    N        0.25495    0.09205    0.59387    1.000
    Si1603   Si       0.25447    0.11891    0.51453    1.000
    N1604    N        0.37993    0.11548    0.60572    1.000
    Si1605   Si       0.43892    0.08568    0.52492    1.000
    N1606    N        0.47365    0.11180    0.51409    1.000
    Si1607   Si       0.42066    0.10286    0.60368    1.000
    N1608    N        0.43066    0.09818    0.56302    1.000
    N1609    N        0.40083    0.09407    0.50239    1.000
    Si1610   Si       0.33760    0.11608    0.67183    1.000
    N1611    N        0.33106    0.08050    0.64686    1.000
    N1612    N        0.30831    0.11589    0.70323    1.000
    Si1613   Si       0.30723    0.07550    0.71717    1.000
    N1614    N        0.45011    0.12491    0.62533    1.000
    N1615    N        0.37795    0.11183    0.68717    1.000
    Si1616   Si       0.44918    0.09650    0.72429    1.000
    N1617    N        0.45947    0.07979    0.68618    1.000
    Si1618   Si       0.38867    0.07243    0.70196    1.000
    N1619    N        0.41452    0.07021    0.73904    1.000
    N1620    N        0.25913    0.09136    0.82217    1.000
    Si1621   Si       0.27673    0.09695    0.78153    1.000
    N1622    N        0.31401    0.10828    0.80324    1.000
    Si1623   Si       0.34081    0.07585    0.81826    1.000
    Si1624   Si       0.29057    0.11408    0.84059    1.000
    N1625    N        0.36265    0.09919    0.84826    1.000
    N1626    N        0.43117    0.11106    0.79634    1.000
    Si1627   Si       0.39894    0.08831    0.77639    1.000
    N1628    N        0.48049    0.09458    0.75406    1.000
    Si1629   Si       0.47224    0.12277    0.78476    1.000
    N1630    N        0.37339    0.12252    0.76913    1.000
    Si1631   Si       0.38489    0.06939    0.86875    1.000
    N1632    N        0.31113    0.09598    0.98625    1.000
    N1633    N        0.29643    0.09845    0.88052    1.000
    N1634    N        0.25928    0.09213    0.93745    1.000
    Si1635   Si       0.25300    0.09953    0.89649    1.000
    Si1636   Si       0.28389    0.11941    0.95952    1.000
    N1637    N        0.42412    0.08028    0.88350    1.000
    Si1638   Si       0.43079    0.12421    0.88485    1.000
    N1639    N        0.43019    0.10747    0.98300    1.000
    Si1640   Si       0.39402    0.08524    0.98554    1.000
    N1641    N        0.37227    0.12245    0.97529    1.000
    N1642    N        0.30815    0.14344    0.07709    1.000
    Si1643   Si       0.34534    0.16198    0.08845    1.000
    Si1644   Si       0.27364    0.16955    0.07077    1.000
    N1645    N        0.32692    0.16650    0.01037    1.000
    Si1646   Si       0.28802    0.18441    0.00158    1.000
    N1647    N        0.23967    0.14401    0.05676    1.000
    Si1648   Si       0.35574    0.18657    0.03364    1.000
    N1649    N        0.37226    0.14715    0.05370    1.000
    N1650    N        0.45324    0.14773    0.03117    1.000
    Si1651   Si       0.41201    0.14049    0.11372    1.000
    Si1652   Si       0.46747    0.16047    0.06964    1.000
    N1653    N        0.43826    0.17341    0.09925    1.000
    N1654    N        0.48408    0.12823    0.09665    1.000
    N1655    N        0.23856    0.14972    0.14668    1.000
    N1656    N        0.31247    0.13781    0.14716    1.000
    Si1657   Si       0.27976    0.16603    0.14296    1.000
    Si1658   Si       0.35258    0.15027    0.16140    1.000
    N1659    N        0.24941    0.16861    0.24223    1.000
    N1660    N        0.27816    0.18501    0.18120    1.000
    N1661    N        0.37244    0.15127    0.12193    1.000
    N1662    N        0.37579    0.13143    0.19532    1.000
    N1663    N        0.42775    0.17648    0.20810    1.000
    N1664    N        0.43374    0.13526    0.15107    1.000
    Si1665   Si       0.47615    0.13731    0.13863    1.000
    Si1666   Si       0.41886    0.13940    0.19114    1.000
    N1667    N        0.28974    0.15284    0.29584    1.000
    Si1668   Si       0.32113    0.14959    0.26577    1.000
    N1669    N        0.24728    0.15685    0.35174    1.000
    Si1670   Si       0.27162    0.13011    0.32799    1.000
    N1671    N        0.36178    0.14768    0.28351    1.000
    N1672    N        0.45474    0.15180    0.34269    1.000
    Si1673   Si       0.41422    0.14843    0.35444    1.000
    N1674    N        0.43981    0.13369    0.27195    1.000
    Si1675   Si       0.46595    0.13140    0.30730    1.000
    Si1676   Si       0.44043    0.17223    0.25014    1.000
    Si1677   Si       0.48260    0.17954    0.36235    1.000
    N1678    N        0.48255    0.17966    0.25004    1.000
    N1679    N        0.38985    0.18043    0.33948    1.000
    Si1680   Si       0.38276    0.18611    0.29671    1.000
    N1681    N        0.32843    0.17304    0.38248    1.000
    N1682    N        0.26994    0.14867    0.41115    1.000
    N1683    N        0.31608    0.17209    0.45715    1.000
    Si1684   Si       0.27332    0.16612    0.45136    1.000
    Si1685   Si       0.30609    0.13668    0.39296    1.000
    N1686    N        0.27517    0.12971    0.47694    1.000
    Si1687   Si       0.31767    0.12752    0.46549    1.000
    N1688    N        0.40099    0.15736    0.39528    1.000
    Si1689   Si       0.46270    0.14843    0.49321    1.000
    N1690    N        0.37736    0.14988    0.46595    1.000
    N1691    N        0.44703    0.14156    0.45169    1.000
    Si1692   Si       0.48552    0.14904    0.42868    1.000
    N1693    N        0.47805    0.18358    0.40496    1.000
    Si1694   Si       0.40656    0.13833    0.43470    1.000
    N1695    N        0.26523    0.14520    0.54732    1.000
    N1696    N        0.34439    0.17596    0.59489    1.000
    Si1697   Si       0.35592    0.13859    0.57794    1.000
    N1698    N        0.28432    0.15840    0.61497    1.000
    Si1699   Si       0.28091    0.12815    0.58327    1.000
    N1700    N        0.36375    0.14251    0.53797    1.000
    N1701    N        0.42623    0.16188    0.51400    1.000
    Si1702   Si       0.39187    0.13572    0.50496    1.000
    N1703    N        0.41207    0.18415    0.60576    1.000
    Si1704   Si       0.32074    0.17983    0.62872    1.000
    N1705    N        0.34269    0.15925    0.66148    1.000
    Si1706   Si       0.29150    0.14867    0.72681    1.000
    N1707    N        0.27707    0.17970    0.70108    1.000
    Si1708   Si       0.43405    0.16328    0.63581    1.000
    N1709    N        0.41621    0.17205    0.67366    1.000
    Si1710   Si       0.37918    0.15621    0.68808    1.000
    N1711    N        0.48040    0.18049    0.69662    1.000
    N1712    N        0.38297    0.17638    0.72887    1.000
    N1713    N        0.43338    0.13803    0.73093    1.000
    Si1714   Si       0.43979    0.17743    0.71053    1.000
    N1715    N        0.27527    0.15621    0.83874    1.000
    Si1716   Si       0.33764    0.14142    0.78467    1.000
    N1717    N        0.34875    0.16327    0.81972    1.000
    N1718    N        0.32182    0.16644    0.75280    1.000
    Si1719   Si       0.30450    0.18032    0.86055    1.000
    N1720    N        0.26371    0.12887    0.75616    1.000
    Si1721   Si       0.36590    0.14170    0.85351    1.000
    Si1722   Si       0.40405    0.15101    0.76309    1.000
    N1723    N        0.40753    0.14859    0.85671    1.000
    N1724    N        0.48402    0.16382    0.77924    1.000
    N1725    N        0.41994    0.17806    0.79252    1.000
    Si1726   Si       0.41883    0.18331    0.83590    1.000
    Si1727   Si       0.32655    0.17715    0.92024    1.000
    N1728    N        0.34013    0.16187    0.88002    1.000
    N1729    N        0.26383    0.15128    0.98144    1.000
    N1730    N        0.31637    0.14415    0.94570    1.000
    Si1731   Si       0.33447    0.13355    0.98470    1.000
    N1732    N        0.41422    0.13616    0.92145    1.000
    N1733    N        0.42377    0.18040    0.97209    1.000
    Si1734   Si       0.41062    0.14112    0.96356    1.000
    N1735    N        0.47194    0.12930    0.87555    1.000
    Si1736   Si       0.48352    0.17054    0.88137    1.000
    N1737    N        0.34793    0.20112    0.07464    1.000
    N1738    N        0.26906    0.19869    0.03789    1.000
    N1739    N        0.27513    0.19266    0.10723    1.000
    Si1740   Si       0.27512    0.23512    0.11149    1.000
    Si1741   Si       0.24059    0.23097    0.04606    1.000
    Si1742   Si       0.35286    0.23881    0.09216    1.000
    N1743    N        0.36914    0.21851    0.00850    1.000
    N1744    N        0.43470    0.21615    0.03160    1.000
    Si1745   Si       0.39685    0.24235    0.03249    1.000
    Si1746   Si       0.44980    0.18457    0.00770    1.000
    N1747    N        0.27375    0.23057    0.22000    1.000
    Si1748   Si       0.31125    0.20567    0.20000    1.000
    Si1749   Si       0.24742    0.19683    0.21060    1.000
    N1750    N        0.34686    0.19018    0.17561    1.000
    N1751    N        0.32223    0.18660    0.24066    1.000
    Si1752   Si       0.35951    0.22985    0.16576    1.000
    Si1753   Si       0.42587    0.21780    0.19696    1.000
    N1754    N        0.38590    0.23774    0.20138    1.000
    N1755    N        0.43228    0.22070    0.15336    1.000
    Si1756   Si       0.46107    0.20104    0.12687    1.000
    N1757    N        0.45842    0.23912    0.21498    1.000
    N1758    N        0.37634    0.24514    0.12942    1.000
    Si1759   Si       0.32570    0.22025    0.26552    1.000
    N1760    N        0.28260    0.21613    0.34701    1.000
    N1761    N        0.28378    0.22250    0.28126    1.000
    N1762    N        0.35131    0.21498    0.29852    1.000
    N1763    N        0.35222    0.23048    0.36437    1.000
    Si1764   Si       0.24174    0.19992    0.34301    1.000
    Si1765   Si       0.26342    0.18342    0.27959    1.000
    N1766    N        0.41479    0.20036    0.27098    1.000
    N1767    N        0.47703    0.21937    0.34562    1.000
    N1768    N        0.47287    0.23566    0.28158    1.000
    N1769    N        0.24233    0.19735    0.45491    1.000
    Si1770   Si       0.31328    0.21506    0.37773    1.000
    Si1771   Si       0.25049    0.22759    0.48219    1.000
    Si1772   Si       0.35494    0.18738    0.45922    1.000
    N1773    N        0.36096    0.22298    0.48505    1.000
    N1774    N        0.37189    0.20813    0.42329    1.000
    Si1775   Si       0.48017    0.22410    0.41681    1.000
    Si1776   Si       0.37064    0.18869    0.38208    1.000
    Si1777   Si       0.48385    0.22162    0.49528    1.000
    N1778    N        0.27033    0.21287    0.51980    1.000
    N1779    N        0.24440    0.20496    0.58275    1.000
    N1780    N        0.35520    0.23534    0.61085    1.000
    Si1781   Si       0.25008    0.18525    0.54449    1.000
    Si1782   Si       0.37684    0.20253    0.58919    1.000
    Si1783   Si       0.42815    0.20124    0.53221    1.000
    N1784    N        0.39097    0.21467    0.55072    1.000
    Si1785   Si       0.44389    0.21467    0.60217    1.000
    N1786    N        0.45833    0.20456    0.56281    1.000
    N1787    N        0.44261    0.23009    0.50239    1.000
    Si1788   Si       0.36866    0.24272    0.52294    1.000
    N1789    N        0.23879    0.24766    0.63833    1.000
    Si1790   Si       0.29892    0.21651    0.68911    1.000
    Si1791   Si       0.26185    0.19534    0.62121    1.000
    N1792    N        0.33660    0.22360    0.70771    1.000
    N1793    N        0.29523    0.21466    0.64347    1.000
    Si1794   Si       0.34811    0.20005    0.74113    1.000
    N1795    N        0.46683    0.19216    0.63293    1.000
    N1796    N        0.45031    0.21395    0.73744    1.000
    N1797    N        0.31344    0.21810    0.84346    1.000
    Si1798   Si       0.35139    0.20668    0.82083    1.000
    N1799    N        0.35467    0.22092    0.78095    1.000
    N1800    N        0.24683    0.23741    0.86898    1.000
    N1801    N        0.38892    0.21529    0.84187    1.000
    Si1802   Si       0.45752    0.19958    0.77937    1.000
    N1803    N        0.45711    0.19474    0.85507    1.000
    N1804    N        0.46094    0.23473    0.80397    1.000
    Si1805   Si       0.46681    0.23652    0.84748    1.000
    N1806    N        0.28996    0.19250    0.90048    1.000
    N1807    N        0.30011    0.22288    0.98473    1.000
    Si1808   Si       0.34424    0.23126    0.97564    1.000
    Si1809   Si       0.25475    0.21572    0.90715    1.000
    N1810    N        0.34713    0.20999    0.93807    1.000
    Si1811   Si       0.44174    0.20623    0.94318    1.000
    N1812    N        0.41840    0.23338    0.92001    1.000
    Si1813   Si       0.37488    0.23964    0.92199    1.000
    N1814    N        0.46219    0.23499    0.97329    1.000
    N1815    N        0.47563    0.18627    0.92257    1.000
    N1816    N        0.31370    0.25533    0.10236    1.000
    N1817    N        0.24545    0.25114    0.08303    1.000
    Si1818   Si       0.30846    0.29702    0.10900    1.000
    N1819    N        0.24296    0.25994    0.01262    1.000
    Si1820   Si       0.35647    0.30407    0.05411    1.000
    N1821    N        0.48521    0.26142    0.04475    1.000
    N1822    N        0.37134    0.26363    0.06084    1.000
    Si1823   Si       0.47857    0.26419    0.08797    1.000
    N1824    N        0.41859    0.27435    0.01379    1.000
    N1825    N        0.43769    0.27309    0.10177    1.000
    Si1826   Si       0.45648    0.24978    0.01388    1.000
    Si1827   Si       0.28601    0.27131    0.17591    1.000
    N1828    N        0.27768    0.29085    0.21406    1.000
    N1829    N        0.25738    0.25365    0.14873    1.000
    N1830    N        0.32062    0.24543    0.17739    1.000
    Si1831   Si       0.46636    0.27608    0.19382    1.000
    Si1832   Si       0.41803    0.26030    0.13762    1.000
    Si1833   Si       0.37843    0.27107    0.22756    1.000
    N1834    N        0.43134    0.28691    0.17017    1.000
    N1835    N        0.34424    0.28111    0.31878    1.000
    Si1836   Si       0.32994    0.28915    0.27765    1.000
    N1837    N        0.28691    0.28322    0.28460    1.000
    Si1838   Si       0.27526    0.25214    0.31573    1.000
    N1839    N        0.28566    0.28092    0.35126    1.000
    Si1840   Si       0.26952    0.26392    0.24886    1.000
    N1841    N        0.34141    0.25746    0.24972    1.000
    N1842    N        0.46300    0.28743    0.35425    1.000
    N1843    N        0.41122    0.27532    0.25796    1.000
    Si1844   Si       0.44296    0.24901    0.35431    1.000
    N1845    N        0.41286    0.24848    0.32239    1.000
    Si1846   Si       0.36793    0.24459    0.32768    1.000
    Si1847   Si       0.42805    0.24120    0.28151    1.000
    N1848    N        0.28711    0.25410    0.47578    1.000
    Si1849   Si       0.30150    0.26905    0.43857    1.000
    N1850    N        0.34465    0.27307    0.43956    1.000
    Si1851   Si       0.25937    0.24704    0.37475    1.000
    N1852    N        0.29246    0.24150    0.40546    1.000
    Si1853   Si       0.42951    0.27963    0.42039    1.000
    N1854    N        0.44445    0.24432    0.39932    1.000
    Si1855   Si       0.37508    0.24400    0.44898    1.000
    N1856    N        0.41106    0.26722    0.45729    1.000
    N1857    N        0.29496    0.26924    0.59234    1.000
    N1858    N        0.26501    0.28183    0.53317    1.000
    Si1859   Si       0.33635    0.26150    0.58085    1.000
    Si1860   Si       0.29409    0.25133    0.51896    1.000
    Si1861   Si       0.28254    0.30357    0.56570    1.000
    N1862    N        0.33119    0.25234    0.54043    1.000
    N1863    N        0.36691    0.29097    0.58954    1.000
    N1864    N        0.39410    0.27777    0.52658    1.000
    Si1865   Si       0.44738    0.28769    0.61348    1.000
    N1866    N        0.42211    0.25063    0.61343    1.000
    Si1867   Si       0.42742    0.26991    0.49798    1.000
    N1868    N        0.44271    0.30177    0.57246    1.000
    N1869    N        0.45746    0.30291    0.50308    1.000
    Si1870   Si       0.39936    0.30328    0.56040    1.000
    N1871    N        0.29135    0.29365    0.65531    1.000
    N1872    N        0.27519    0.24994    0.70394    1.000
    Si1873   Si       0.28047    0.25736    0.63211    1.000
    Si1874   Si       0.28893    0.29132    0.69777    1.000
    Si1875   Si       0.35636    0.26541    0.70787    1.000
    N1876    N        0.32767    0.29796    0.71425    1.000
    N1877    N        0.48581    0.28102    0.63061    1.000
    Si1878   Si       0.43123    0.25405    0.72994    1.000
    Si1879   Si       0.38343    0.26640    0.62334    1.000
    N1880    N        0.38777    0.25847    0.73570    1.000
    Si1881   Si       0.48788    0.28047    0.67427    1.000
    Si1882   Si       0.41148    0.29663    0.68012    1.000
    N1883    N        0.37818    0.27092    0.66874    1.000
    N1884    N        0.44630    0.27158    0.69223    1.000
    N1885    N        0.27774    0.27298    0.81985    1.000
    N1886    N        0.34443    0.29455    0.77943    1.000
    Si1887   Si       0.28659    0.25168    0.85564    1.000
    Si1888   Si       0.24290    0.26622    0.79769    1.000
    Si1889   Si       0.37209    0.26107    0.77675    1.000
    N1890    N        0.39361    0.27387    0.81293    1.000
    Si1891   Si       0.46926    0.27437    0.78877    1.000
    N1892    N        0.44074    0.26755    0.86250    1.000
    Si1893   Si       0.39877    0.25552    0.85260    1.000
    N1894    N        0.44449    0.28555    0.75636    1.000
    N1895    N        0.28382    0.29133    0.96870    1.000
    N1896    N        0.29834    0.27406    0.89218    1.000
    Si1897   Si       0.27323    0.28274    0.92647    1.000
    Si1898   Si       0.26981    0.25279    0.97961    1.000
    Si1899   Si       0.33698    0.29526    0.88472    1.000
    N1900    N        0.25181    0.24585    0.93879    1.000
    N1901    N        0.36299    0.26649    0.95398    1.000
    Si1902   Si       0.44126    0.26798    0.90774    1.000
    N1903    N        0.48182    0.26818    0.91828    1.000
    N1904    N        0.36810    0.26392    0.88466    1.000
    Si1905   Si       0.29865    0.33938    0.05885    1.000
    N1906    N        0.33787    0.31882    0.09144    1.000
    N1907    N        0.26717    0.34505    0.02586    1.000
    N1908    N        0.32237    0.31878    0.02926    1.000
    N1909    N        0.27534    0.31340    0.08595    1.000
    Si1910   Si       0.29333    0.32495    0.99718    1.000
    Si1911   Si       0.46109    0.35925    0.04332    1.000
    Si1912   Si       0.36501    0.34377    0.11795    1.000
    N1913    N        0.45594    0.33251    0.00655    1.000
    N1914    N        0.39525    0.32382    0.05104    1.000
    N1915    N        0.45856    0.33579    0.07851    1.000
    Si1916   Si       0.41593    0.31649    0.01099    1.000
    Si1917   Si       0.42181    0.31267    0.08851    1.000
    Si1918   Si       0.48318    0.35196    0.11123    1.000
    Si1919   Si       0.30702    0.34997    0.15786    1.000
    Si1920   Si       0.25862    0.32927    0.20557    1.000
    N1921    N        0.30166    0.30726    0.15157    1.000
    N1922    N        0.29177    0.35715    0.19809    1.000
    N1923    N        0.34756    0.36062    0.15333    1.000
    N1924    N        0.39748    0.31700    0.12749    1.000
    Si1925   Si       0.37564    0.34070    0.23438    1.000
    Si1926   Si       0.40453    0.32212    0.17010    1.000
    N1927    N        0.37932    0.30965    0.20479    1.000
    N1928    N        0.47064    0.31079    0.22134    1.000
    N1929    N        0.35000    0.32564    0.26635    1.000
    N1930    N        0.31459    0.34659    0.32536    1.000
    Si1931   Si       0.31867    0.30641    0.34019    1.000
    N1932    N        0.25666    0.34375    0.36745    1.000
    Si1933   Si       0.33468    0.36035    0.28781    1.000
    Si1934   Si       0.43714    0.30828    0.25406    1.000
    N1935    N        0.46997    0.30620    0.28266    1.000
    N1936    N        0.41545    0.34475    0.24999    1.000
    Si1937   Si       0.48852    0.30527    0.32290    1.000
    Si1938   Si       0.27570    0.34105    0.45836    1.000
    N1939    N        0.33166    0.31658    0.38120    1.000
    N1940    N        0.31097    0.34835    0.48313    1.000
    N1941    N        0.28580    0.30781    0.42869    1.000
    Si1942   Si       0.27164    0.30737    0.38608    1.000
    Si1943   Si       0.35788    0.30641    0.41376    1.000
    Si1944   Si       0.34123    0.35788    0.38294    1.000
    N1945    N        0.36341    0.35106    0.42341    1.000
    Si1946   Si       0.40293    0.35203    0.39423    1.000
    Si1947   Si       0.46705    0.32280    0.46663    1.000
    N1948    N        0.40133    0.30565    0.40110    1.000
    N1949    N        0.46644    0.29949    0.42827    1.000
    N1950    N        0.43877    0.35554    0.45398    1.000
    N1951    N        0.31902    0.32175    0.55238    1.000
    N1952    N        0.26213    0.32496    0.59944    1.000
    Si1953   Si       0.34875    0.32929    0.58040    1.000
    Si1954   Si       0.30517    0.35332    0.52535    1.000
    N1955    N        0.26545    0.35459    0.54308    1.000
    N1956    N        0.32903    0.34486    0.61512    1.000
    N1957    N        0.38713    0.34386    0.56740    1.000
    Si1958   Si       0.47352    0.31529    0.54351    1.000
    N1959    N        0.48023    0.35778    0.54985    1.000
    Si1960   Si       0.25207    0.35652    0.68592    1.000
    N1961    N        0.26649    0.32431    0.71405    1.000
    Si1962   Si       0.29201    0.33041    0.63135    1.000
    N1963    N        0.34921    0.35981    0.74292    1.000
    N1964    N        0.35799    0.36069    0.67074    1.000
    Si1965   Si       0.37641    0.35652    0.71043    1.000
    N1966    N        0.41882    0.30950    0.63989    1.000
    N1967    N        0.40393    0.32469    0.71236    1.000
    N1968    N        0.29353    0.33358    0.78046    1.000
    Si1969   Si       0.25681    0.33084    0.75631    1.000
    N1970    N        0.33533    0.30637    0.84124    1.000
    Si1971   Si       0.32763    0.32330    0.75020    1.000
    Si1972   Si       0.30917    0.30129    0.80710    1.000
    Si1973   Si       0.37604    0.31467    0.81724    1.000
    N1974    N        0.40334    0.32537    0.85305    1.000
    N1975    N        0.39532    0.33817    0.78516    1.000
    Si1976   Si       0.47499    0.34606    0.78953    1.000
    Si1977   Si       0.44194    0.30788    0.84929    1.000
    N1978    N        0.46288    0.31021    0.81152    1.000
    Si1979   Si       0.42069    0.32267    0.75368    1.000
    N1980    N        0.45162    0.35291    0.75126    1.000
    N1981    N        0.23956    0.31062    0.91710    1.000
    N1982    N        0.34529    0.32290    0.91768    1.000
    Si1983   Si       0.24704    0.35307    0.91158    1.000
    N1984    N        0.30081    0.35674    0.97018    1.000
    Si1985   Si       0.32303    0.35638    0.93235    1.000
    Si1986   Si       0.37869    0.30733    0.94466    1.000
    N1987    N        0.41777    0.30426    0.92272    1.000
    N1988    N        0.47841    0.33929    0.93625    1.000
    Si1989   Si       0.44053    0.34151    0.91331    1.000
    Si1990   Si       0.48758    0.32702    0.97687    1.000
    N1991    N        0.38787    0.33154    0.97853    1.000
    N1992    N        0.46491    0.33806    0.87519    1.000
    Si1993   Si       0.28360    0.39961    0.09363    1.000
    N1994    N        0.31261    0.38140    0.06403    1.000
    Si1995   Si       0.33735    0.40806    0.03955    1.000
    N1996    N        0.24626    0.39136    0.07161    1.000
    N1997    N        0.26329    0.40738    0.00282    1.000
    Si1998   Si       0.24579    0.38232    0.02991    1.000
    N1999    N        0.36462    0.38080    0.02024    1.000
    N2000    N        0.42722    0.38576    0.03707    1.000
    Si2001   Si       0.41951    0.40472    0.10104    1.000
    N2002    N        0.38760    0.37432    0.09148    1.000
    Si2003   Si       0.39145    0.36698    0.05049    1.000
    N2004    N        0.45713    0.38728    0.11889    1.000
    Si2005   Si       0.42848    0.41746    0.00594    1.000
    N2006    N        0.28156    0.37498    0.13082    1.000
    Si2007   Si       0.31056    0.38433    0.22459    1.000
    Si2008   Si       0.24502    0.37374    0.15388    1.000
    N2009    N        0.35943    0.37953    0.22440    1.000
    N2010    N        0.40412    0.41740    0.13943    1.000
    N2011    N        0.41068    0.36562    0.17570    1.000
    Si2012   Si       0.37287    0.38591    0.18150    1.000
    Si2013   Si       0.43704    0.39551    0.15906    1.000
    N2014    N        0.30109    0.37969    0.26670    1.000
    Si2015   Si       0.26385    0.39897    0.28021    1.000
    N2016    N        0.25218    0.37734    0.31683    1.000
    Si2017   Si       0.28461    0.37181    0.34419    1.000
    N2018    N        0.48524    0.41060    0.34235    1.000
    N2019    N        0.36855    0.38862    0.29297    1.000
    N2020    N        0.48233    0.37952    0.27386    1.000
    Si2021   Si       0.43794    0.37658    0.27000    1.000
    Si2022   Si       0.47901    0.37495    0.31750    1.000
    Si2023   Si       0.39590    0.38768    0.32782    1.000
    N2024    N        0.43406    0.36970    0.31418    1.000
    Si2025   Si       0.37641    0.40844    0.25456    1.000
    N2026    N        0.41980    0.41507    0.25692    1.000
    Si2027   Si       0.44792    0.41306    0.36900    1.000
    N2028    N        0.37870    0.36782    0.36263    1.000
    N2029    N        0.30969    0.38581    0.37890    1.000
    Si2030   Si       0.30121    0.40290    0.41858    1.000
    N2031    N        0.33487    0.40638    0.44876    1.000
    N2032    N        0.27078    0.37496    0.43195    1.000
    Si2033   Si       0.34721    0.36779    0.46177    1.000
    Si2034   Si       0.24241    0.36691    0.40130    1.000
    N2035    N        0.37805    0.37703    0.48979    1.000
    N2036    N        0.48009    0.41060    0.44755    1.000
    Si2037   Si       0.41842    0.38744    0.47598    1.000
    N2038    N        0.43928    0.37615    0.38999    1.000
    Si2039   Si       0.46491    0.37457    0.42557    1.000
    N2040    N        0.33017    0.38709    0.53959    1.000
    N2041    N        0.27593    0.39939    0.59017    1.000
    Si2042   Si       0.25394    0.36473    0.58362    1.000
    Si2043   Si       0.29693    0.41328    0.55460    1.000
    Si2044   Si       0.36643    0.40394    0.52306    1.000
    N2045    N        0.39980    0.40812    0.55036    1.000
    Si2046   Si       0.40115    0.38074    0.58301    1.000
    Si2047   Si       0.47648    0.38667    0.58204    1.000
    N2048    N        0.44117    0.37457    0.60180    1.000
    N2049    N        0.44701    0.39782    0.50686    1.000
    N2050    N        0.38177    0.39792    0.61863    1.000
    Si2051   Si       0.48645    0.37752    0.51191    1.000
    Si2052   Si       0.28371    0.40648    0.63051    1.000
    Si2053   Si       0.34668    0.37997    0.63584    1.000
    N2054    N        0.24595    0.39218    0.70838    1.000
    N2055    N        0.27806    0.36622    0.65229    1.000
    N2056    N        0.32417    0.41557    0.64448    1.000
    N2057    N        0.46225    0.41763    0.73628    1.000
    Si2058   Si       0.46058    0.38098    0.64028    1.000
    Si2059   Si       0.44648    0.38004    0.71831    1.000
    N2060    N        0.40328    0.39112    0.71152    1.000
    N2061    N        0.47030    0.37008    0.68186    1.000
    N2062    N        0.44344    0.42078    0.64996    1.000
    N2063    N        0.27225    0.38707    0.82566    1.000
    Si2064   Si       0.29865    0.37689    0.79344    1.000
    N2065    N        0.28697    0.40426    0.76193    1.000
    N2066    N        0.33940    0.37675    0.80541    1.000
    Si2067   Si       0.24351    0.39936    0.75217    1.000
    Si2068   Si       0.35675    0.40077    0.83725    1.000
    Si2069   Si       0.23878    0.39455    0.85098    1.000
    Si2070   Si       0.37421    0.37455    0.77869    1.000
    Si2071   Si       0.43748    0.41176    0.82506    1.000
    N2072    N        0.46625    0.37888    0.81619    1.000
    N2073    N        0.40059    0.39019    0.83400    1.000
    Si2074   Si       0.47668    0.37837    0.85776    1.000
    N2075    N        0.45703    0.41807    0.86436    1.000
    N2076    N        0.38265    0.41704    0.77220    1.000
    Si2077   Si       0.39506    0.36405    0.86907    1.000
    Si2078   Si       0.35371    0.41216    0.90787    1.000
    N2079    N        0.35221    0.38735    0.94339    1.000
    Si2080   Si       0.27003    0.38654    0.96502    1.000
    N2081    N        0.28642    0.37141    0.90881    1.000
    N2082    N        0.35635    0.38181    0.87676    1.000
    Si2083   Si       0.28500    0.41524    0.90434    1.000
    N2084    N        0.41250    0.39961    0.96970    1.000
    Si2085   Si       0.41708    0.41475    0.92820    1.000
    Si2086   Si       0.37632    0.37526    0.97882    1.000
    N2087    N        0.41670    0.37625    0.90697    1.000
    Si2088   Si       0.32336    0.46434    0.09293    1.000
    N2089    N        0.28544    0.44317    0.09916    1.000
    N2090    N        0.35078    0.44122    0.06669    1.000
    N2091    N        0.32610    0.43137    0.00619    1.000
    Si2092   Si       0.25481    0.46574    0.11851    1.000
    Si2093   Si       0.39069    0.45821    0.05618    1.000
    N2094    N        0.42305    0.43993    0.07813    1.000
    N2095    N        0.40265    0.45302    0.01385    1.000
    Si2096   Si       0.45971    0.46377    0.08056    1.000
    N2097    N        0.46969    0.42797    0.99793    1.000
    N2098    N        0.46474    0.46978    0.12290    1.000
    N2099    N        0.26236    0.45498    0.16007    1.000
    Si2100   Si       0.33148    0.44963    0.21313    1.000
    Si2101   Si       0.25773    0.43623    0.19870    1.000
    N2102    N        0.34531    0.47245    0.13274    1.000
    N2103    N        0.29683    0.42471    0.21468    1.000
    N2104    N        0.35717    0.42804    0.18399    1.000
    Si2105   Si       0.37764    0.44985    0.15308    1.000
    N2106    N        0.45823    0.42715    0.17895    1.000
    Si2107   Si       0.44715    0.46590    0.16410    1.000
    N2108    N        0.27403    0.43874    0.29356    1.000
    Si2109   Si       0.24750    0.46184    0.31905    1.000
    N2110    N        0.24957    0.46232    0.36068    1.000
    Si2111   Si       0.29641    0.47582    0.28833    1.000
    N2112    N        0.33495    0.47745    0.30732    1.000
    Si2113   Si       0.36368    0.48175    0.27479    1.000
    N2114    N        0.35603    0.44706    0.24877    1.000
    N2115    N        0.41283    0.42457    0.34373    1.000
    N2116    N        0.47261    0.46503    0.28405    1.000
    Si2117   Si       0.43383    0.45446    0.26554    1.000
    Si2118   Si       0.40569    0.46627    0.33592    1.000
    N2119    N        0.40217    0.47279    0.29331    1.000
    Si2120   Si       0.24532    0.44520    0.39974    1.000
    N2121    N        0.35382    0.46595    0.42649    1.000
    N2122    N        0.28633    0.44271    0.41566    1.000
    Si2123   Si       0.31282    0.47668    0.41658    1.000
    Si2124   Si       0.36703    0.43735    0.45728    1.000
    N2125    N        0.40989    0.42399    0.45400    1.000
    N2126    N        0.44947    0.44229    0.40050    1.000
    Si2127   Si       0.44849    0.44197    0.44333    1.000
    N2128    N        0.32020    0.44705    0.56866    1.000
    N2129    N        0.27409    0.41831    0.51816    1.000
    N2130    N        0.36659    0.44275    0.50208    1.000
    N2131    N        0.41608    0.46090    0.60354    1.000
    Si2132   Si       0.46050    0.45691    0.59720    1.000
    N2133    N        0.43137    0.47020    0.52756    1.000
    Si2134   Si       0.43589    0.42729    0.53653    1.000
    N2135    N        0.47064    0.42807    0.56729    1.000
    Si2136   Si       0.38948    0.47839    0.51356    1.000
    Si2137   Si       0.34044    0.44263    0.67420    1.000
    N2138    N        0.25809    0.43707    0.65057    1.000
    N2139    N        0.26888    0.45483    0.71460    1.000
    N2140    N        0.33909    0.42421    0.71352    1.000
    Si2141   Si       0.30306    0.43672    0.73626    1.000
    Si2142   Si       0.24916    0.47511    0.63520    1.000
    Si2143   Si       0.24009    0.43135    0.68959    1.000
    Si2144   Si       0.38066    0.42449    0.72774    1.000
    N2145    N        0.45607    0.47600    0.68722    1.000
    N2146    N        0.40537    0.46013    0.72476    1.000
    Si2147   Si       0.47702    0.44431    0.66482    1.000
    Si2148   Si       0.44994    0.45782    0.73004    1.000
    Si2149   Si       0.40505    0.43135    0.63316    1.000
    N2150    N        0.38309    0.45575    0.66352    1.000
    Si2151   Si       0.33282    0.46626    0.86099    1.000
    N2152    N        0.35824    0.44248    0.83422    1.000
    N2153    N        0.31510    0.47449    0.75628    1.000
    N2154    N        0.42815    0.45182    0.80873    1.000
    Si2155   Si       0.38432    0.45137    0.79853    1.000
    Si2156   Si       0.28978    0.44082    0.98762    1.000
    N2157    N        0.31940    0.43546    0.89019    1.000
    N2158    N        0.24735    0.42214    0.88260    1.000
    N2159    N        0.28103    0.42534    0.94775    1.000
    N2160    N        0.45427    0.43792    0.92717    1.000
    Si2161   Si       0.46507    0.45219    0.88835    1.000
    Si2162   Si       0.48434    0.43674    0.95739    1.000
    N2163    N        0.38576    0.44055    0.91285    1.000
    N2164    N        0.31613    0.50455    0.07825    1.000
    N2165    N        0.25001    0.50692    0.10664    1.000
    Si2166   Si       0.28816    0.52779    0.10276    1.000
    Si2167   Si       0.35022    0.51786    0.05568    1.000
    N2168    N        0.35746    0.50720    0.01434    1.000
    N2169    N        0.38627    0.49802    0.07228    1.000
    N2170    N        0.45458    0.50544    0.07103    1.000
    Si2171   Si       0.41904    0.52453    0.08466    1.000
    Si2172   Si       0.48728    0.53028    0.05798    1.000
    Si2173   Si       0.33745    0.50600    0.15867    1.000
    Si2174   Si       0.31800    0.51874    0.22847    1.000
    N2175    N        0.32859    0.48933    0.19714    1.000
    Si2176   Si       0.24771    0.50457    0.23349    1.000
    N2177    N        0.30164    0.52701    0.14288    1.000
    N2178    N        0.26005    0.52461    0.19907    1.000
    N2179    N        0.44172    0.47662    0.23020    1.000
    N2180    N        0.48752    0.53546    0.23656    1.000
    N2181    N        0.43258    0.53372    0.12577    1.000
    N2182    N        0.47207    0.49885    0.17640    1.000
    Si2183   Si       0.45884    0.51211    0.21375    1.000
    N2184    N        0.40638    0.47998    0.16324    1.000
    Si2185   Si       0.40697    0.52409    0.15967    1.000
    Si2186   Si       0.47276    0.51131    0.13298    1.000
    N2187    N        0.26910    0.50007    0.31555    1.000
    Si2188   Si       0.33766    0.49936    0.34359    1.000
    Si2189   Si       0.26944    0.50286    0.36253    1.000
    N2190    N        0.35237    0.51889    0.25754    1.000
    N2191    N        0.28698    0.49672    0.25191    1.000
    N2192    N        0.34093    0.53946    0.33145    1.000
    Si2193   Si       0.26404    0.53784    0.29180    1.000
    N2194    N        0.37405    0.48291    0.35989    1.000
    Si2195   Si       0.47374    0.48944    0.31936    1.000
    N2196    N        0.44228    0.48247    0.34685    1.000
    N2197    N        0.47819    0.53028    0.30900    1.000
    N2198    N        0.30937    0.49508    0.37639    1.000
    N2199    N        0.30117    0.50556    0.44886    1.000
    Si2200   Si       0.26178    0.50814    0.46790    1.000
    N2201    N        0.24353    0.53116    0.38074    1.000
    N2202    N        0.48734    0.50356    0.39806    1.000
    Si2203   Si       0.37459    0.49862    0.40339    1.000
    Si2204   Si       0.45069    0.48362    0.38979    1.000
    N2205    N        0.45818    0.48378    0.45720    1.000
    N2206    N        0.41749    0.50201    0.41057    1.000
    N2207    N        0.39298    0.49603    0.47493    1.000
    Si2208   Si       0.42342    0.51255    0.45148    1.000
    N2209    N        0.31594    0.51824    0.56468    1.000
    Si2210   Si       0.27849    0.52160    0.58545    1.000
    N2211    N        0.28358    0.48505    0.61195    1.000
    N2212    N        0.35798    0.49445    0.61325    1.000
    Si2213   Si       0.32360    0.48210    0.59158    1.000
    N2214    N        0.24629    0.50811    0.55950    1.000
    Si2215   Si       0.24470    0.53651    0.52719    1.000
    Si2216   Si       0.35187    0.53783    0.54409    1.000
    N2217    N        0.27580    0.53493    0.49808    1.000
    Si2218   Si       0.46287    0.52535    0.60574    1.000
    N2219    N        0.37930    0.50234    0.54681    1.000
    Si2220   Si       0.39504    0.49542    0.58740    1.000
    Si2221   Si       0.46473    0.49697    0.53476    1.000
    N2222    N        0.47262    0.49488    0.57812    1.000
    N2223    N        0.41811    0.52850    0.60243    1.000
    N2224    N        0.33143    0.48396    0.68163    1.000
    Si2225   Si       0.32197    0.50276    0.72146    1.000
    Si2226   Si       0.25067    0.49527    0.71369    1.000
    N2227    N        0.28307    0.52510    0.71567    1.000
    N2228    N        0.35555    0.52862    0.73427    1.000
    Si2229   Si       0.36237    0.49705    0.65500    1.000
    N2230    N        0.42133    0.53520    0.73998    1.000
    N2231    N        0.39871    0.52009    0.67439    1.000
    N2232    N        0.46052    0.52937    0.64960    1.000
    Si2233   Si       0.48379    0.50721    0.67852    1.000
    N2234    N        0.48561    0.53537    0.71152    1.000
    Si2235   Si       0.41171    0.48055    0.68806    1.000
    Si2236   Si       0.26880    0.49722    0.84649    1.000
    Si2237   Si       0.32629    0.49406    0.79299    1.000
    N2238    N        0.30702    0.48355    0.83111    1.000
    N2239    N        0.31530    0.53587    0.78985    1.000
    Si2240   Si       0.44895    0.48730    0.82328    1.000
    N2241    N        0.37084    0.49013    0.79224    1.000
    N2242    N        0.43145    0.52238    0.80388    1.000
    Si2243   Si       0.39841    0.52108    0.77499    1.000
    N2244    N        0.47157    0.48513    0.75354    1.000
    N2245    N        0.45393    0.49120    0.86762    1.000
    Si2246   Si       0.46371    0.52830    0.74884    1.000
    Si2247   Si       0.24609    0.51747    0.92140    1.000
    N2248    N        0.26293    0.48940    0.89081    1.000
    Si2249   Si       0.25440    0.50346    0.98047    1.000
    Si2250   Si       0.32927    0.50739    0.98061    1.000
    N2251    N        0.35154    0.49575    0.88726    1.000
    N2252    N        0.29195    0.48535    0.98307    1.000
    N2253    N        0.36216    0.48810    0.95812    1.000
    Si2254   Si       0.43331    0.52631    0.88324    1.000
    N2255    N        0.41159    0.51285    0.91776    1.000
    Si2256   Si       0.37894    0.48273    0.91889    1.000
    Si2257   Si       0.47151    0.50964    0.97946    1.000
    Si2258   Si       0.39076    0.48776    0.99260    1.000
    N2259    N        0.42827    0.50457    0.98036    1.000
    N2260    N        0.27971    0.57014    0.09119    1.000
    N2261    N        0.34078    0.56225    0.05606    1.000
    N2262    N        0.27958    0.56063    0.02400    1.000
    Si2263   Si       0.30093    0.58064    0.05589    1.000
    Si2264   Si       0.25463    0.59204    0.11808    1.000
    N2265    N        0.40612    0.56502    0.07766    1.000
    Si2266   Si       0.43510    0.57894    0.11123    1.000
    N2267    N        0.47211    0.56813    0.07730    1.000
    Si2268   Si       0.37215    0.58967    0.06572    1.000
    N2269    N        0.44953    0.59156    0.01099    1.000
    N2270    N        0.31766    0.55529    0.20286    1.000
    Si2271   Si       0.28481    0.54908    0.17518    1.000
    Si2272   Si       0.35338    0.57213    0.18473    1.000
    N2273    N        0.27466    0.58736    0.15874    1.000
    N2274    N        0.47295    0.58777    0.13798    1.000
    N2275    N        0.42582    0.53761    0.19665    1.000
    Si2276   Si       0.41832    0.57177    0.22037    1.000
    N2277    N        0.37726    0.58446    0.21746    1.000
    N2278    N        0.36605    0.53913    0.15861    1.000
    N2279    N        0.29921    0.55835    0.27623    1.000
    Si2280   Si       0.34085    0.55061    0.28928    1.000
    N2281    N        0.24868    0.56409    0.32145    1.000
    Si2282   Si       0.24860    0.57207    0.36392    1.000
    N2283    N        0.36644    0.58448    0.28600    1.000
    Si2284   Si       0.36775    0.55901    0.35973    1.000
    Si2285   Si       0.47057    0.55344    0.27253    1.000
    N2286    N        0.40414    0.55961    0.33685    1.000
    N2287    N        0.43089    0.56715    0.26209    1.000
    Si2288   Si       0.40693    0.58154    0.29801    1.000
    N2289    N        0.47758    0.58509    0.35721    1.000
    Si2290   Si       0.43455    0.58824    0.35179    1.000
    N2291    N        0.34743    0.59307    0.37322    1.000
    Si2292   Si       0.34568    0.57618    0.41424    1.000
    N2293    N        0.31145    0.57356    0.44435    1.000
    Si2294   Si       0.36108    0.59071    0.48342    1.000
    Si2295   Si       0.31127    0.54201    0.47287    1.000
    N2296    N        0.36006    0.53785    0.39834    1.000
    Si2297   Si       0.47219    0.55371    0.48491    1.000
    N2298    N        0.43331    0.55254    0.46494    1.000
    N2299    N        0.41581    0.59801    0.38809    1.000
    N2300    N        0.27791    0.55876    0.60502    1.000
    N2301    N        0.24874    0.57673    0.54398    1.000
    N2302    N        0.34218    0.55207    0.50228    1.000
    Si2303   Si       0.27214    0.59091    0.57522    1.000
    N2304    N        0.36131    0.56463    0.57862    1.000
    N2305    N        0.42936    0.58709    0.56727    1.000
    Si2306   Si       0.46905    0.57154    0.55630    1.000
    Si2307   Si       0.40147    0.56793    0.59244    1.000
    N2308    N        0.48367    0.56320    0.59659    1.000
    N2309    N        0.46602    0.53886    0.52681    1.000
    Si2310   Si       0.25842    0.58242    0.63599    1.000
    N2311    N        0.28796    0.57892    0.66809    1.000
    Si2312   Si       0.26705    0.56442    0.70389    1.000
    N2313    N        0.40580    0.58466    0.63384    1.000
    Si2314   Si       0.38968    0.54415    0.71012    1.000
    N2315    N        0.37909    0.58277    0.69872    1.000
    Si2316   Si       0.42044    0.54479    0.64506    1.000
    Si2317   Si       0.29625    0.55919    0.82168    1.000
    N2318    N        0.32887    0.56114    0.85080    1.000
    Si2319   Si       0.34468    0.55660    0.76642    1.000
    N2320    N        0.28301    0.59250    0.79705    1.000
    N2321    N        0.26367    0.54075    0.84172    1.000
    N2322    N        0.38079    0.55881    0.79152    1.000
    Si2323   Si       0.41174    0.55732    0.82225    1.000
    N2324    N        0.39904    0.54192    0.86172    1.000
    N2325    N        0.43397    0.59248    0.82991    1.000
    Si2326   Si       0.46571    0.59488    0.86239    1.000
    N2327    N        0.48833    0.55787    0.76941    1.000
    Si2328   Si       0.24758    0.56803    0.87048    1.000
    N2329    N        0.26643    0.53799    0.95372    1.000
    Si2330   Si       0.32063    0.58726    0.88630    1.000
    N2331    N        0.32730    0.55025    0.97536    1.000
    Si2332   Si       0.35603    0.57158    0.95219    1.000
    Si2333   Si       0.28757    0.56497    0.98125    1.000
    N2334    N        0.34758    0.56324    0.90894    1.000
    N2335    N        0.27817    0.59208    0.88953    1.000
    Si2336   Si       0.35919    0.53745    0.87468    1.000
    N2337    N        0.39738    0.56741    0.96720    1.000
    N2338    N        0.46209    0.55865    0.88619    1.000
    N2339    N        0.46967    0.54677    0.95375    1.000
    Si2340   Si       0.48047    0.58292    0.97853    1.000
    Si2341   Si       0.42311    0.53656    0.95257    1.000
    N2342    N        0.30062    0.62564    0.05308    1.000
    Si2343   Si       0.32328    0.64141    0.08747    1.000
    N2344    N        0.36005    0.61604    0.09530    1.000
    N2345    N        0.29494    0.63598    0.11921    1.000
    N2346    N        0.43836    0.62011    0.08951    1.000
    N2347    N        0.38044    0.61162    0.02860    1.000
    Si2348   Si       0.45887    0.60246    0.05270    1.000
    Si2349   Si       0.38213    0.65426    0.00989    1.000
    Si2350   Si       0.40866    0.59661    0.99804    1.000
    N2351    N        0.34236    0.60381    0.15870    1.000
    Si2352   Si       0.30233    0.61991    0.16037    1.000
    N2353    N        0.32176    0.62061    0.24836    1.000
    Si2354   Si       0.44861    0.61116    0.16360    1.000
    Si2355   Si       0.42614    0.63588    0.23039    1.000
    Si2356   Si       0.37539    0.62030    0.13659    1.000
    N2357    N        0.45343    0.65171    0.15596    1.000
    N2358    N        0.41040    0.59827    0.14373    1.000
    N2359    N        0.44018    0.60537    0.20556    1.000
    N2360    N        0.30170    0.62038    0.31207    1.000
    Si2361   Si       0.31561    0.61858    0.35452    1.000
    N2362    N        0.24997    0.61040    0.26582    1.000
    Si2363   Si       0.29239    0.60006    0.27353    1.000
    Si2364   Si       0.36106    0.60705    0.24972    1.000
    Si2365   Si       0.24448    0.65137    0.24891    1.000
    N2366    N        0.27985    0.60179    0.37237    1.000
    Si2367   Si       0.47074    0.62598    0.29474    1.000
    N2368    N        0.43459    0.61182    0.31371    1.000
    N2369    N        0.39074    0.63868    0.25395    1.000
    N2370    N        0.45741    0.64700    0.25835    1.000
    N2371    N        0.25768    0.62685    0.44061    1.000
    Si2372   Si       0.30114    0.61571    0.45119    1.000
    Si2373   Si       0.25360    0.62581    0.39705    1.000
    N2374    N        0.31860    0.63921    0.41925    1.000
    N2375    N        0.32955    0.62107    0.48737    1.000
    Si2376   Si       0.46175    0.64821    0.42103    1.000
    N2377    N        0.42874    0.63159    0.44494    1.000
    N2378    N        0.47611    0.59872    0.47965    1.000
    Si2379   Si       0.39590    0.62325    0.41770    1.000
    Si2380   Si       0.42721    0.59712    0.46930    1.000
    N2381    N        0.37320    0.59593    0.44270    1.000
    Si2382   Si       0.31143    0.63094    0.52372    1.000
    N2383    N        0.26767    0.63552    0.51754    1.000
    N2384    N        0.25102    0.61495    0.60600    1.000
    N2385    N        0.30863    0.60679    0.56275    1.000
    Si2386   Si       0.34507    0.60349    0.58507    1.000
    N2387    N        0.37564    0.62680    0.56208    1.000
    Si2388   Si       0.41182    0.61780    0.54195    1.000
    N2389    N        0.44514    0.64420    0.53330    1.000
    Si2390   Si       0.47971    0.62704    0.51510    1.000
    N2391    N        0.42553    0.64844    0.60526    1.000
    N2392    N        0.40128    0.60114    0.50277    1.000
    N2393    N        0.27594    0.64270    0.66250    1.000
    N2394    N        0.34104    0.63084    0.68863    1.000
    Si2395   Si       0.31042    0.61645    0.66268    1.000
    Si2396   Si       0.24895    0.63425    0.69493    1.000
    N2397    N        0.33928    0.60989    0.62944    1.000
    N2398    N        0.25990    0.60262    0.72411    1.000
    Si2399   Si       0.36106    0.61262    0.72431    1.000
    N2400    N        0.38745    0.64689    0.73023    1.000
    Si2401   Si       0.43061    0.62014    0.63621    1.000
    Si2402   Si       0.48630    0.62956    0.69004    1.000
    N2403    N        0.47176    0.60845    0.65216    1.000
    N2404    N        0.39715    0.64406    0.66171    1.000
    Si2405   Si       0.43065    0.64887    0.73755    1.000
    Si2406   Si       0.37317    0.60742    0.66069    1.000
    N2407    N        0.46104    0.65951    0.70861    1.000
    Si2408   Si       0.31260    0.62146    0.78339    1.000
    N2409    N        0.32594    0.64166    0.81880    1.000
    Si2410   Si       0.25530    0.60574    0.76627    1.000
    N2411    N        0.28239    0.64525    0.76382    1.000
    N2412    N        0.33708    0.59738    0.75753    1.000
    Si2413   Si       0.43103    0.62653    0.80766    1.000
    N2414    N        0.44668    0.62095    0.76641    1.000
    N2415    N        0.39140    0.64435    0.80485    1.000
    Si2416   Si       0.48617    0.60012    0.75963    1.000
    N2417    N        0.45799    0.65726    0.82284    1.000
    N2418    N        0.33316    0.62733    0.88603    1.000
    Si2419   Si       0.31529    0.63966    0.96999    1.000
    N2420    N        0.28315    0.60926    0.98154    1.000
    N2421    N        0.34555    0.61341    0.95216    1.000
    Si2422   Si       0.27033    0.63253    0.90514    1.000
    Si2423   Si       0.24289    0.62423    0.99425    1.000
    Si2424   Si       0.36063    0.63657    0.91735    1.000
    N2425    N        0.29071    0.65653    0.93691    1.000
    N2426    N        0.48022    0.62234    0.95737    1.000
    N2427    N        0.46731    0.62733    0.89043    1.000
    Si2428   Si       0.45301    0.65288    0.97218    1.000
    N2429    N        0.40086    0.62570    0.91002    1.000
    Si2430   Si       0.43384    0.65284    0.90340    1.000
    N2431    N        0.41198    0.63897    0.98318    1.000
    N2432    N        0.34057    0.67909    0.09571    1.000
    N2433    N        0.26933    0.68271    0.07537    1.000
    N2434    N        0.28531    0.67453    0.00054    1.000
    Si2435   Si       0.27442    0.66029    0.03916    1.000
    Si2436   Si       0.25797    0.65745    0.10849    1.000
    Si2437   Si       0.36268    0.70594    0.06340    1.000
    Si2438   Si       0.31732    0.70298    0.00019    1.000
    N2439    N        0.38776    0.68063    0.04228    1.000
    N2440    N        0.44152    0.69183    0.10023    1.000
    N2441    N        0.47382    0.67838    0.00237    1.000
    Si2442   Si       0.45571    0.65283    0.11137    1.000
    N2443    N        0.34940    0.68431    0.22746    1.000
    Si2444   Si       0.25650    0.67296    0.18618    1.000
    N2445    N        0.24371    0.67827    0.14434    1.000
    Si2446   Si       0.31575    0.65727    0.22636    1.000
    N2447    N        0.25973    0.71255    0.20466    1.000
    N2448    N        0.29661    0.65341    0.18884    1.000
    Si2449   Si       0.36381    0.69683    0.12725    1.000
    Si2450   Si       0.46190    0.68472    0.23410    1.000
    N2451    N        0.42598    0.67553    0.21047    1.000
    N2452    N        0.38580    0.66183    0.14460    1.000
    Si2453   Si       0.41901    0.67723    0.16736    1.000
    N2454    N        0.34053    0.67669    0.29248    1.000
    Si2455   Si       0.34648    0.69293    0.33181    1.000
    N2456    N        0.26590    0.67783    0.31678    1.000
    N2457    N        0.32857    0.66180    0.35714    1.000
    N2458    N        0.28488    0.67202    0.25347    1.000
    Si2459   Si       0.29865    0.66196    0.29466    1.000
    Si2460   Si       0.26303    0.71175    0.24972    1.000
    Si2461   Si       0.37379    0.67839    0.26472    1.000
    N2462    N        0.38766    0.69418    0.34256    1.000
    Si2463   Si       0.47589    0.67324    0.35349    1.000
    N2464    N        0.45372    0.70408    0.33071    1.000
    N2465    N        0.40240    0.71001    0.27709    1.000
    N2466    N        0.49029    0.70551    0.26477    1.000
    Si2467   Si       0.33938    0.67042    0.40042    1.000
    N2468    N        0.33809    0.71092    0.41289    1.000
    N2469    N        0.24491    0.66529    0.37959    1.000
    N2470    N        0.26756    0.71222    0.42694    1.000
    N2471    N        0.38077    0.66070    0.40114    1.000
    N2472    N        0.46788    0.69017    0.43545    1.000
    Si2473   Si       0.40955    0.68484    0.37806    1.000
    N2474    N        0.39860    0.70968    0.45743    1.000
    N2475    N        0.44642    0.66087    0.38273    1.000
    Si2476   Si       0.48624    0.68833    0.47553    1.000
    N2477    N        0.29316    0.68057    0.61029    1.000
    N2478    N        0.32729    0.66871    0.53665    1.000
    Si2479   Si       0.25201    0.67470    0.51355    1.000
    Si2480   Si       0.31535    0.70716    0.52336    1.000
    Si2481   Si       0.27588    0.70794    0.58043    1.000
    Si2482   Si       0.33353    0.69869    0.61352    1.000
    N2483    N        0.24458    0.68977    0.55373    1.000
    N2484    N        0.27984    0.70354    0.49731    1.000
    N2485    N        0.36929    0.68651    0.59436    1.000
    Si2486   Si       0.36649    0.66833    0.55669    1.000
    Si2487   Si       0.45001    0.68325    0.60419    1.000
    N2488    N        0.39608    0.68768    0.52958    1.000
    Si2489   Si       0.43870    0.68665    0.53396    1.000
    N2490    N        0.45474    0.70896    0.57028    1.000
    N2491    N        0.45718    0.70970    0.50220    1.000
    N2492    N        0.35613    0.69826    0.71891    1.000
    N2493    N        0.35796    0.69563    0.65326    1.000
    Si2494   Si       0.26132    0.65423    0.62373    1.000
    Si2495   Si       0.36704    0.66791    0.68726    1.000
    Si2496   Si       0.39415    0.67769    0.63063    1.000
    Si2497   Si       0.47043    0.69836    0.72821    1.000
    N2498    N        0.42771    0.70508    0.63635    1.000
    N2499    N        0.34413    0.68957    0.85412    1.000
    Si2500   Si       0.25840    0.67972    0.75312    1.000
    N2501    N        0.35439    0.69705    0.78223    1.000
    Si2502   Si       0.35879    0.67015    0.81569    1.000
    Si2503   Si       0.31627    0.65549    0.85866    1.000
    Si2504   Si       0.24030    0.68709    0.86976    1.000
    N2505    N        0.27560    0.65911    0.87124    1.000
    Si2506   Si       0.45123    0.69318    0.84652    1.000
    N2507    N        0.42763    0.69130    0.75370    1.000
    Si2508   Si       0.38256    0.68663    0.75026    1.000
    N2509    N        0.34697    0.67092    0.98749    1.000
    Si2510   Si       0.26502    0.68181    0.96051    1.000
    Si2511   Si       0.35976    0.70098    0.95735    1.000
    N2512    N        0.41690    0.68020    0.87142    1.000
    Si2513   Si       0.37901    0.69820    0.88270    1.000
    N2514    N        0.36546    0.67966    0.92080    1.000
    N2515    N        0.47747    0.70551    0.87863    1.000
    N2516    N        0.44290    0.67724    0.93762    1.000
    N2517    N        0.27900    0.75194    0.07979    1.000
    Si2518   Si       0.30946    0.75624    0.04902    1.000
    N2519    N        0.28708    0.76007    0.01216    1.000
    Si2520   Si       0.24964    0.72092    0.07345    1.000
    Si2521   Si       0.24699    0.74515    0.00353    1.000
    N2522    N        0.33218    0.72149    0.03620    1.000
    Si2523   Si       0.36428    0.77363    0.09881    1.000
    N2524    N        0.48152    0.76245    0.03579    1.000
    Si2525   Si       0.48283    0.72128    0.01467    1.000
    N2526    N        0.37997    0.72906    0.09888    1.000
    N2527    N        0.44582    0.75962    0.09616    1.000
    Si2528   Si       0.42207    0.72713    0.11068    1.000
    N2529    N        0.40709    0.76176    0.03631    1.000
    Si2530   Si       0.35380    0.71990    0.20201    1.000
    Si2531   Si       0.24445    0.75106    0.18342    1.000
    N2532    N        0.32765    0.75378    0.20442    1.000
    Si2533   Si       0.31865    0.75321    0.16202    1.000
    N2534    N        0.27476    0.76377    0.15412    1.000
    N2535    N        0.34122    0.71480    0.15911    1.000
    Si2536   Si       0.31427    0.76945    0.24248    1.000
    Si2537   Si       0.43089    0.74736    0.18703    1.000
    N2538    N        0.41954    0.72002    0.15430    1.000
    N2539    N        0.39087    0.74089    0.21156    1.000
    N2540    N        0.45016    0.73771    0.22571    1.000
    N2541    N        0.47538    0.75200    0.16294    1.000
    Si2542   Si       0.48336    0.75490    0.24670    1.000
    N2543    N        0.32895    0.73257    0.33143    1.000
    N2544    N        0.29072    0.74113    0.26285    1.000
    Si2545   Si       0.30544    0.75449    0.30274    1.000
    Si2546   Si       0.33405    0.76403    0.36069    1.000
    N2547    N        0.26932    0.76635    0.32378    1.000
    Si2548   Si       0.26035    0.77008    0.36640    1.000
    N2549    N        0.46617    0.75526    0.29022    1.000
    N2550    N        0.40769    0.76120    0.33056    1.000
    Si2551   Si       0.41357    0.72018    0.31688    1.000
    Si2552   Si       0.48569    0.72073    0.30468    1.000
    Si2553   Si       0.41384    0.74157    0.24914    1.000
    Si2554   Si       0.26534    0.73007    0.46753    1.000
    N2555    N        0.29818    0.75609    0.45927    1.000
    N2556    N        0.29823    0.75482    0.38429    1.000
    Si2557   Si       0.30471    0.73617    0.42141    1.000
    Si2558   Si       0.33492    0.76519    0.48080    1.000
    N2559    N        0.36348    0.76695    0.44929    1.000
    N2560    N        0.34460    0.72630    0.49971    1.000
    Si2561   Si       0.37611    0.72982    0.42500    1.000
    N2562    N        0.36975    0.77127    0.38519    1.000
    N2563    N        0.41317    0.72402    0.39890    1.000
    N2564    N        0.45145    0.75538    0.45429    1.000
    Si2565   Si       0.43606    0.71867    0.43826    1.000
    Si2566   Si       0.41328    0.76527    0.37621    1.000
    Si2567   Si       0.38578    0.71403    0.49828    1.000
    N2568    N        0.30842    0.72810    0.56059    1.000
    N2569    N        0.24648    0.73262    0.59815    1.000
    Si2570   Si       0.32193    0.76394    0.58401    1.000
    N2571    N        0.32703    0.74009    0.62016    1.000
    N2572    N        0.36299    0.77211    0.57047    1.000
    Si2573   Si       0.47413    0.74496    0.58457    1.000
    N2574    N        0.40456    0.75222    0.51215    1.000
    Si2575   Si       0.44516    0.75185    0.49687    1.000
    N2576    N        0.23781    0.73951    0.66865    1.000
    Si2577   Si       0.32155    0.72447    0.72552    1.000
    Si2578   Si       0.34469    0.73799    0.65949    1.000
    Si2579   Si       0.27534    0.76179    0.67751    1.000
    N2580    N        0.31163    0.74040    0.68715    1.000
    N2581    N        0.28238    0.71405    0.74221    1.000
    N2582    N        0.43924    0.77550    0.65938    1.000
    N2583    N        0.48793    0.73795    0.62583    1.000
    Si2584   Si       0.45661    0.73390    0.65491    1.000
    N2585    N        0.37106    0.77167    0.66499    1.000
    N2586    N        0.46948    0.72668    0.69538    1.000
    Si2587   Si       0.46435    0.76272    0.71909    1.000
    N2588    N        0.32879    0.74903    0.82121    1.000
    Si2589   Si       0.33577    0.73300    0.85966    1.000
    N2590    N        0.25916    0.75859    0.79020    1.000
    Si2591   Si       0.35223    0.74016    0.78641    1.000
    N2592    N        0.24851    0.72362    0.85084    1.000
    N2593    N        0.33473    0.75990    0.75165    1.000
    Si2594   Si       0.25599    0.74767    0.74637    1.000
    N2595    N        0.39558    0.74778    0.78223    1.000
    N2596    N        0.45108    0.72717    0.81824    1.000
    Si2597   Si       0.43568    0.72821    0.77751    1.000
    N2598    N        0.47301    0.73603    0.75673    1.000
    Si2599   Si       0.46325    0.76952    0.82316    1.000
    Si2600   Si       0.27016    0.75462    0.87360    1.000
    N2601    N        0.24959    0.72135    0.96645    1.000
    Si2602   Si       0.31830    0.75846    0.93051    1.000
    N2603    N        0.30708    0.74417    0.89057    1.000
    N2604    N        0.32339    0.72462    0.96229    1.000
    Si2605   Si       0.41331    0.75577    0.99344    1.000
    Si2606   Si       0.39581    0.76935    0.90452    1.000
    N2607    N        0.39247    0.72386    0.97370    1.000
    Si2608   Si       0.48628    0.75974    0.96334    1.000
    N2609    N        0.37561    0.73974    0.87824    1.000
    Si2610   Si       0.47176    0.74523    0.89675    1.000
    N2611    N        0.43123    0.74664    0.91704    1.000
    N2612    N        0.45247    0.73702    0.98099    1.000
    Si2613   Si       0.43150    0.71696    0.94884    1.000
    N2614    N        0.28598    0.81802    0.10835    1.000
    N2615    N        0.26755    0.82223    0.00823    1.000
    N2616    N        0.34083    0.78324    0.06261    1.000
    Si2617   Si       0.34919    0.81332    0.03556    1.000
    Si2618   Si       0.26716    0.77790    0.11208    1.000
    Si2619   Si       0.42649    0.78601    0.06573    1.000
    N2620    N        0.44550    0.81897    0.03998    1.000
    N2621    N        0.39662    0.80248    0.09480    1.000
    Si2622   Si       0.48207    0.80372    0.02107    1.000
    Si2623   Si       0.42025    0.83019    0.00309    1.000
    Si2624   Si       0.32324    0.82133    0.13151    1.000
    Si2625   Si       0.25539    0.81471    0.23047    1.000
    N2626    N        0.34103    0.78177    0.13447    1.000
    N2627    N        0.29698    0.80723    0.22891    1.000
    N2628    N        0.36234    0.82850    0.21812    1.000
    Si2629   Si       0.44167    0.82228    0.16790    1.000
    N2630    N        0.42342    0.79044    0.19070    1.000
    N2631    N        0.46364    0.81258    0.13160    1.000
    Si2632   Si       0.39865    0.80322    0.22382    1.000
    Si2633   Si       0.47569    0.77397    0.12423    1.000
    N2634    N        0.32539    0.80378    0.34719    1.000
    Si2635   Si       0.33352    0.81942    0.30831    1.000
    N2636    N        0.33116    0.78206    0.28296    1.000
    N2637    N        0.24697    0.81397    0.27503    1.000
    N2638    N        0.44285    0.81783    0.31147    1.000
    Si2639   Si       0.40663    0.79708    0.30629    1.000
    Si2640   Si       0.47660    0.79806    0.29628    1.000
    N2641    N        0.40426    0.78155    0.26293    1.000
    N2642    N        0.48689    0.80026    0.25397    1.000
    N2643    N        0.37652    0.82958    0.31379    1.000
    N2644    N        0.26554    0.81020    0.38462    1.000
    N2645    N        0.33199    0.82315    0.41320    1.000
    Si2646   Si       0.30595    0.82796    0.37967    1.000
    Si2647   Si       0.36848    0.79828    0.41874    1.000
    Si2648   Si       0.23797    0.82402    0.41462    1.000
    Si2649   Si       0.47343    0.78341    0.42635    1.000
    N2650    N        0.44175    0.79266    0.39821    1.000
    N2651    N        0.29138    0.79231    0.57084    1.000
    Si2652   Si       0.26411    0.80510    0.60294    1.000
    Si2653   Si       0.31247    0.81290    0.53929    1.000
    N2654    N        0.34223    0.79272    0.51429    1.000
    N2655    N        0.34139    0.81285    0.61415    1.000
    Si2656   Si       0.37755    0.80806    0.58778    1.000
    Si2657   Si       0.38090    0.78053    0.53258    1.000
    N2658    N        0.40234    0.81599    0.54995    1.000
    Si2659   Si       0.44532    0.80381    0.55312    1.000
    N2660    N        0.45118    0.78234    0.59023    1.000
    N2661    N        0.46378    0.78362    0.51797    1.000
    N2662    N        0.40213    0.81806    0.62139    1.000
    N2663    N        0.26438    0.77994    0.71786    1.000
    Si2664   Si       0.26770    0.82212    0.72748    1.000
    N2665    N        0.27289    0.78214    0.63884    1.000
    N2666    N        0.31111    0.82729    0.73136    1.000
    N2667    N        0.49048    0.79641    0.71234    1.000
    Si2668   Si       0.48149    0.83182    0.68877    1.000
    Si2669   Si       0.44250    0.80549    0.62867    1.000
    N2670    N        0.39623    0.82382    0.68738    1.000
    Si2671   Si       0.36787    0.81745    0.65165    1.000
    Si2672   Si       0.40638    0.78251    0.68771    1.000
    N2673    N        0.42235    0.77337    0.72641    1.000
    N2674    N        0.27962    0.78972    0.84750    1.000
    N2675    N        0.31594    0.81222    0.79539    1.000
    Si2676   Si       0.33554    0.80426    0.75645    1.000
    Si2677   Si       0.29488    0.77503    0.80913    1.000
    Si2678   Si       0.27032    0.83374    0.85283    1.000
    N2679    N        0.37729    0.81558    0.75934    1.000
    N2680    N        0.44268    0.79363    0.79203    1.000
    Si2681   Si       0.40859    0.78607    0.76551    1.000
    N2682    N        0.46500    0.77740    0.86668    1.000
    N2683    N        0.29116    0.78832    0.94585    1.000
    Si2684   Si       0.25580    0.80195    0.92415    1.000
    Si2685   Si       0.29606    0.79682    0.98840    1.000
    N2686    N        0.33817    0.80304    0.99389    1.000
    N2687    N        0.35930    0.77478    0.93105    1.000
    Si2688   Si       0.45086    0.81638    0.88092    1.000
    N2689    N        0.41032    0.81068    0.89679    1.000
    N2690    N        0.47912    0.79920    0.97868    1.000
    Si2691   Si       0.36975    0.80487    0.96222    1.000
    N2692    N        0.40693    0.79590    0.97914    1.000
    N2693    N        0.47515    0.83298    0.91138    1.000
    Si2694   Si       0.47647    0.83504    0.95347    1.000
    N2695    N        0.32304    0.84650    0.04871    1.000
    Si2696   Si       0.33281    0.87455    0.08222    1.000
    Si2697   Si       0.27734    0.84931    0.04144    1.000
    N2698    N        0.35151    0.84896    0.11243    1.000
    Si2699   Si       0.35499    0.87191    0.02459    1.000
    N2700    N        0.24106    0.84651    0.06530    1.000
    Si2701   Si       0.24705    0.83753    0.10637    1.000
    N2702    N        0.28212    0.89006    0.02792    1.000
    N2703    N        0.42375    0.86578    0.09010    1.000
    Si2704   Si       0.45412    0.85633    0.06126    1.000
    Si2705   Si       0.39449    0.84107    0.11640    1.000
    N2706    N        0.38345    0.83921    0.02530    1.000
    N2707    N        0.31641    0.87796    0.22464    1.000
    Si2708   Si       0.27435    0.86485    0.16867    1.000
    N2709    N        0.25113    0.85200    0.20706    1.000
    N2710    N        0.30714    0.83694    0.16812    1.000
    Si2711   Si       0.32096    0.83696    0.21042    1.000
    N2712    N        0.42138    0.83971    0.23483    1.000
    Si2713   Si       0.38261    0.86237    0.23344    1.000
    N2714    N        0.47267    0.88084    0.13781    1.000
    Si2715   Si       0.46336    0.83498    0.23502    1.000
    N2716    N        0.41029    0.85136    0.15539    1.000
    N2717    N        0.47751    0.83459    0.19239    1.000
    N2718    N        0.30388    0.84965    0.29305    1.000
    Si2719   Si       0.25914    0.85235    0.29085    1.000
    Si2720   Si       0.32025    0.87994    0.26640    1.000
    Si2721   Si       0.26064    0.88216    0.35730    1.000
    N2722    N        0.29992    0.86839    0.36457    1.000
    N2723    N        0.24548    0.88797    0.26666    1.000
    N2724    N        0.36460    0.87895    0.27002    1.000
    Si2725   Si       0.44907    0.85412    0.33189    1.000
    Si2726   Si       0.38004    0.87414    0.31051    1.000
    N2727    N        0.47826    0.86931    0.25701    1.000
    N2728    N        0.42329    0.88643    0.31583    1.000
    Si2729   Si       0.35599    0.85531    0.42915    1.000
    N2730    N        0.35096    0.86429    0.47112    1.000
    N2731    N        0.25330    0.84658    0.44995    1.000
    Si2732   Si       0.24755    0.83820    0.49332    1.000
    N2733    N        0.35755    0.88625    0.39871    1.000
    N2734    N        0.24159    0.88862    0.39469    1.000
    Si2735   Si       0.24140    0.88811    0.43907    1.000
    N2736    N        0.44176    0.85925    0.37430    1.000
    Si2737   Si       0.43488    0.83300    0.41003    1.000
    N2738    N        0.45528    0.86547    0.43496    1.000
    Si2739   Si       0.38027    0.89267    0.48571    1.000
    N2740    N        0.39320    0.83178    0.42617    1.000
    Si2741   Si       0.43686    0.88992    0.46703    1.000
    N2742    N        0.33593    0.85272    0.54313    1.000
    N2743    N        0.27599    0.84474    0.60992    1.000
    N2744    N        0.33335    0.88058    0.60883    1.000
    Si2745   Si       0.32008    0.86112    0.50202    1.000
    Si2746   Si       0.35184    0.88412    0.56988    1.000
    Si2747   Si       0.25357    0.87898    0.61824    1.000
    N2748    N        0.28820    0.83297    0.50801    1.000
    Si2749   Si       0.41749    0.85704    0.54080    1.000
    N2750    N        0.45959    0.84331    0.55068    1.000
    N2751    N        0.39499    0.88412    0.56650    1.000
    N2752    N        0.41731    0.87429    0.50103    1.000
    Si2753   Si       0.31454    0.84593    0.62542    1.000
    Si2754   Si       0.31010    0.85839    0.69977    1.000
    N2755    N        0.26464    0.85000    0.69318    1.000
    N2756    N        0.33422    0.84500    0.66618    1.000
    Si2757   Si       0.45709    0.88314    0.64607    1.000
    N2758    N        0.38541    0.87671    0.72691    1.000
    N2759    N        0.45456    0.85693    0.71393    1.000
    Si2760   Si       0.41225    0.86094    0.69701    1.000
    N2761    N        0.46452    0.83934    0.64805    1.000
    Si2762   Si       0.31488    0.85387    0.80329    1.000
    N2763    N        0.30590    0.85459    0.84470    1.000
    N2764    N        0.35265    0.87258    0.79210    1.000
    N2765    N        0.28522    0.88113    0.78773    1.000
    Si2766   Si       0.33533    0.87765    0.86631    1.000
    Si2767   Si       0.24318    0.86901    0.78944    1.000
    N2768    N        0.23721    0.84806    0.82760    1.000
    N2769    N        0.48918    0.84967    0.78870    1.000
    N2770    N        0.44506    0.84245    0.84623    1.000
    Si2771   Si       0.41302    0.87252    0.83737    1.000
    N2772    N        0.41546    0.86034    0.79603    1.000
    Si2773   Si       0.38495    0.85920    0.76728    1.000
    N2774    N        0.37706    0.86536    0.86500    1.000
    Si2775   Si       0.45141    0.83619    0.80310    1.000
    N2776    N        0.32242    0.87556    0.90690    1.000
    Si2777   Si       0.28046    0.87091    0.91631    1.000
    Si2778   Si       0.33444    0.86714    0.94898    1.000
    N2779    N        0.29130    0.86455    0.95740    1.000
    N2780    N        0.34610    0.88892    0.98659    1.000
    N2781    N        0.26695    0.83511    0.89592    1.000
    N2782    N        0.36949    0.84332    0.94177    1.000
    N2783    N        0.41920    0.88318    0.90952    1.000
    Si2784   Si       0.39113    0.84843    0.90260    1.000
    N2785    N        0.44854    0.85546    0.98083    1.000
    Si2786   Si       0.28557    0.92492    0.05454    1.000
    N2787    N        0.30097    0.90389    0.09061    1.000
    Si2788   Si       0.35570    0.94345    0.05316    1.000
    N2789    N        0.35823    0.90025    0.05837    1.000
    N2790    N        0.24405    0.93961    0.04612    1.000
    N2791    N        0.46456    0.93190    0.09495    1.000
    Si2792   Si       0.46807    0.93538    0.05251    1.000
    Si2793   Si       0.44139    0.90001    0.11190    1.000
    N2794    N        0.45962    0.89382    0.03944    1.000
    N2795    N        0.36914    0.94891    0.01199    1.000
    Si2796   Si       0.29928    0.92824    0.12469    1.000
    Si2797   Si       0.30528    0.91416    0.20275    1.000
    N2798    N        0.29409    0.90380    0.16327    1.000
    N2799    N        0.27358    0.94136    0.21719    1.000
    N2800    N        0.33800    0.94152    0.20101    1.000
    N2801    N        0.41035    0.91620    0.13612    1.000
    N2802    N        0.38560    0.89549    0.20755    1.000
    Si2803   Si       0.48741    0.89941    0.17273    1.000
    Si2804   Si       0.41150    0.89168    0.17353    1.000
    Si2805   Si       0.37263    0.93250    0.22593    1.000
    N2806    N        0.49014    0.94290    0.16592    1.000
    N2807    N        0.44969    0.89858    0.19692    1.000
    Si2808   Si       0.46207    0.90492    0.23686    1.000
    N2809    N        0.30721    0.91872    0.28218    1.000
    N2810    N        0.35130    0.90384    0.33059    1.000
    Si2811   Si       0.34046    0.93541    0.30320    1.000
    N2812    N        0.25364    0.91959    0.33710    1.000
    Si2813   Si       0.32949    0.89976    0.36822    1.000
    Si2814   Si       0.28339    0.94849    0.25902    1.000
    N2815    N        0.36186    0.94802    0.26712    1.000
    Si2816   Si       0.44427    0.92245    0.30107    1.000
    N2817    N        0.43533    0.92981    0.25992    1.000
    N2818    N        0.30621    0.93538    0.37995    1.000
    N2819    N        0.25137    0.92518    0.45693    1.000
    Si2820   Si       0.45525    0.89251    0.39743    1.000
    Si2821   Si       0.38547    0.91700    0.40936    1.000
    N2822    N        0.46553    0.92397    0.47107    1.000
    N2823    N        0.36408    0.93147    0.49590    1.000
    N2824    N        0.40073    0.90834    0.44950    1.000
    N2825    N        0.42423    0.92555    0.38955    1.000
    N2826    N        0.33185    0.92083    0.55671    1.000
    Si2827   Si       0.32498    0.93083    0.51514    1.000
    N2828    N        0.24361    0.93920    0.52772    1.000
    N2829    N        0.30054    0.89945    0.49885    1.000
    Si2830   Si       0.25875    0.91065    0.49841    1.000
    N2831    N        0.23874    0.90011    0.58445    1.000
    Si2832   Si       0.23812    0.94279    0.58861    1.000
    N2833    N        0.45617    0.89962    0.60587    1.000
    Si2834   Si       0.41890    0.91252    0.58820    1.000
    N2835    N        0.48178    0.92406    0.53799    1.000
    N2836    N        0.38964    0.93255    0.61256    1.000
    Si2837   Si       0.25367    0.93068    0.66621    1.000
    Si2838   Si       0.32418    0.90999    0.63954    1.000
    N2839    N        0.35390    0.91135    0.67126    1.000
    N2840    N        0.28136    0.90089    0.64519    1.000
    Si2841   Si       0.35737    0.90704    0.71513    1.000
    N2842    N        0.31744    0.89407    0.72517    1.000
    N2843    N        0.41718    0.88899    0.66575    1.000
    Si2844   Si       0.39227    0.92429    0.65535    1.000
    N2845    N        0.48258    0.90056    0.67683    1.000
    N2846    N        0.43769    0.92987    0.72710    1.000
    N2847    N        0.36938    0.94331    0.73508    1.000
    Si2848   Si       0.46426    0.89837    0.71772    1.000
    N2849    N        0.33488    0.91564    0.84513    1.000
    Si2850   Si       0.29930    0.91240    0.75943    1.000
    Si2851   Si       0.35400    0.91282    0.80626    1.000
    N2852    N        0.32728    0.93589    0.78107    1.000
    N2853    N        0.26887    0.94271    0.74925    1.000
    N2854    N        0.43372    0.90829    0.84826    1.000
    N2855    N        0.39160    0.93176    0.80272    1.000
    Si2856   Si       0.43088    0.94079    0.81811    1.000
    Si2857   Si       0.47381    0.94729    0.74872    1.000
    Si2858   Si       0.27642    0.89536    0.98393    1.000
    N2859    N        0.25826    0.90724    0.91919    1.000
    N2860    N        0.30067    0.93252    0.97099    1.000
    Si2861   Si       0.34364    0.93298    0.98000    1.000
    Si2862   Si       0.28580    0.93856    0.93082    1.000
    N2863    N        0.32054    0.94706    0.90581    1.000
    N2864    N        0.48664    0.91182    0.90815    1.000
    N2865    N        0.36982    0.92962    0.94276    1.000
    N2866    N        0.42382    0.91426    0.97899    1.000
    N2867    N        0.43055    0.94334    0.91344    1.000
    Si2868   Si       0.40940    0.91416    0.93740    1.000
    Si2869   Si       0.44806    0.90898    0.88983    1.000
    Si2870   Si       0.45777    0.89479    0.99486    1.000
    N2871    N        0.27192    0.96216    0.10544    1.000
    Si2872   Si       0.30808    0.00216    0.05566    1.000
    N2873    N        0.31440    0.95839    0.05196    1.000
    Si2874   Si       0.24384    0.97313    0.07325    1.000
    N2875    N        0.26411    0.00585    0.04779    1.000
    Si2876   Si       0.41646    0.98778    0.05954    1.000
    N2877    N        0.38718    0.96016    0.08000    1.000
    N2878    N        0.43714    0.95787    0.03364    1.000
    Si2879   Si       0.41087    0.95035    0.00158    1.000
    N2880    N        0.43720    0.00874    0.09163    1.000
    Si2881   Si       0.28341    0.00076    0.12613    1.000
    N2882    N        0.29103    0.98516    0.16632    1.000
    Si2883   Si       0.25750    0.97408    0.19064    1.000
    Si2884   Si       0.33300    0.97182    0.17090    1.000
    N2885    N        0.24150    0.99998    0.22360    1.000
    N2886    N        0.35057    0.00985    0.18658    1.000
    N2887    N        0.34006    0.94823    0.13082    1.000
    Si2888   Si       0.39355    0.99684    0.18521    1.000
    N2889    N        0.40041    0.96261    0.21270    1.000
    N2890    N        0.39566    0.98567    0.14168    1.000
    N2891    N        0.46374    0.98985    0.22283    1.000
    Si2892   Si       0.38449    0.94934    0.12207    1.000
    Si2893   Si       0.43057    0.96947    0.24477    1.000
    N2894    N        0.27159    0.98788    0.34473    1.000
    N2895    N        0.33351    0.97689    0.31481    1.000
    Si2896   Si       0.34343    0.98790    0.27364    1.000
    Si2897   Si       0.31360    0.00194    0.34539    1.000
    N2898    N        0.30237    0.98822    0.25778    1.000
    N2899    N        0.24280    0.95256    0.27473    1.000
    Si2900   Si       0.26913    0.94950    0.36503    1.000
    Si2901   Si       0.42225    0.00233    0.31646    1.000
    N2902    N        0.43212    0.95675    0.32423    1.000
    N2903    N        0.41622    0.99697    0.27373    1.000
    N2904    N        0.39490    0.99752    0.35466    1.000
    Si2905   Si       0.48406    0.00613    0.35771    1.000
    Si2906   Si       0.42540    0.96403    0.36576    1.000
    Si2907   Si       0.25010    0.96355    0.43776    1.000
    N2908    N        0.29261    0.97556    0.43752    1.000
    Si2909   Si       0.30768    0.99359    0.47540    1.000
    N2910    N        0.33391    0.00004    0.38378    1.000
    N2911    N        0.35061    0.98949    0.46864    1.000
    Si2912   Si       0.32269    0.96427    0.40701    1.000
    N2913    N        0.35998    0.94965    0.41838    1.000
    Si2914   Si       0.37681    0.95466    0.46018    1.000
    N2915    N        0.45283    0.99188    0.38557    1.000
    Si2916   Si       0.44896    0.96574    0.47111    1.000
    N2917    N        0.41261    0.97847    0.45132    1.000
    N2918    N        0.47356    0.99193    0.44887    1.000
    Si2919   Si       0.43944    0.00638    0.42401    1.000
    N2920    N        0.27551    0.96732    0.57793    1.000
    N2921    N        0.34772    0.98525    0.57304    1.000
    Si2922   Si       0.26470    0.97469    0.53580    1.000
    N2923    N        0.30236    0.96801    0.51187    1.000
    Si2924   Si       0.31711    0.95442    0.58159    1.000
    Si2925   Si       0.27531    0.00766    0.59636    1.000
    Si2926   Si       0.39070    0.97309    0.58511    1.000
    N2927    N        0.44343    0.98045    0.51056    1.000
    Si2928   Si       0.46246    0.96260    0.54497    1.000
    N2929    N        0.42839    0.94818    0.56700    1.000
    Si2930   Si       0.28137    0.97403    0.72191    1.000
    Si2931   Si       0.31175    0.97897    0.65259    1.000
    N2932    N        0.28377    0.96200    0.68119    1.000
    N2933    N        0.31448    0.99539    0.73883    1.000
    N2934    N        0.34428    0.00435    0.67422    1.000
    N2935    N        0.25260    0.00791    0.73480    1.000
    N2936    N        0.32386    0.94967    0.62416    1.000
    N2937    N        0.44033    0.99391    0.72575    1.000
    Si2938   Si       0.40593    0.96189    0.71914    1.000
    N2939    N        0.39548    0.99775    0.62170    1.000
    Si2940   Si       0.38761    0.00082    0.66420    1.000
    Si2941   Si       0.47835    0.00192    0.70513    1.000
    N2942    N        0.40114    0.96004    0.67653    1.000
    N2943    N        0.37999    0.00550    0.73835    1.000
    N2944    N        0.30424    0.98461    0.85541    1.000
    Si2945   Si       0.34794    0.97130    0.76303    1.000
    N2946    N        0.34809    0.99767    0.80044    1.000
    Si2947   Si       0.33281    0.95400    0.86436    1.000
    N2948    N        0.24082    0.00567    0.86777    1.000
    N2949    N        0.43368    0.97878    0.84095    1.000
    Si2950   Si       0.45620    0.99679    0.80656    1.000
    N2951    N        0.46079    0.95564    0.78941    1.000
    Si2952   Si       0.40662    0.99588    0.87006    1.000
    N2953    N        0.26326    0.97366    0.92279    1.000
    Si2954   Si       0.27800    0.99761    0.89046    1.000
    Si2955   Si       0.35815    0.96410    0.91903    1.000
    N2956    N        0.35891    0.00074    0.93771    1.000
    N2957    N        0.41862    0.98305    0.97198    1.000
    Si2958   Si       0.43587    0.98045    0.93260    1.000
    N2959    N        0.47775    0.97946    0.94172    1.000
    N2960    N        0.37277    0.96777    0.87906    1.000
    Si2961   Si       0.60744    0.02381    0.07963    1.000
    N2962    N        0.53190    0.05925    0.01670    1.000
    N2963    N        0.50086    0.01952    0.05758    1.000
    N2964    N        0.56441    0.01040    0.08920    1.000
    Si2965   Si       0.49139    0.04623    0.02534    1.000
    N2966    N        0.61440    0.05915    0.10458    1.000
    Si2967   Si       0.67577    0.02915    0.03385    1.000
    N2968    N        0.63233    0.03394    0.04245    1.000
    N2969    N        0.70422    0.06017    0.04375    1.000
    Si2970   Si       0.63089    0.04760    0.00039    1.000
    N2971    N        0.53315    0.03951    0.14879    1.000
    Si2972   Si       0.52360    0.03223    0.18945    1.000
    N2973    N        0.55330    0.05100    0.21449    1.000
    Si2974   Si       0.58654    0.02643    0.22926    1.000
    N2975    N        0.62034    0.05362    0.23066    1.000
    N2976    N        0.66848    0.02217    0.14926    1.000
    Si2977   Si       0.64586    0.05826    0.13500    1.000
    N2978    N        0.72445    0.05873    0.18980    1.000
    Si2979   Si       0.72606    0.03731    0.22789    1.000
    Si2980   Si       0.70701    0.04316    0.15252    1.000
    N2981    N        0.73756    0.01778    0.13435    1.000
    Si2982   Si       0.54283    0.04969    0.35722    1.000
    N2983    N        0.51019    0.05562    0.28362    1.000
    Si2984   Si       0.53339    0.01891    0.28853    1.000
    N2985    N        0.57207    0.01841    0.26814    1.000
    N2986    N        0.55133    0.01852    0.32906    1.000
    N2987    N        0.61723    0.02147    0.33731    1.000
    Si2988   Si       0.65235    0.04302    0.32954    1.000
    Si2989   Si       0.65007    0.04237    0.26069    1.000
    N2990    N        0.66980    0.06256    0.36452    1.000
    N2991    N        0.68382    0.01632    0.31921    1.000
    Si2992   Si       0.72234    0.01390    0.33968    1.000
    N2993    N        0.69071    0.05433    0.24932    1.000
    N2994    N        0.64284    0.06720    0.29463    1.000
    Si2995   Si       0.54929    0.04709    0.49478    1.000
    Si2996   Si       0.49133    0.02945    0.45562    1.000
    N2997    N        0.50542    0.04001    0.37421    1.000
    Si2998   Si       0.56150    0.05636    0.42705    1.000
    N2999    N        0.57747    0.03282    0.46180    1.000
    N3000    N        0.57755    0.04611    0.38889    1.000
    N3001    N        0.51812    0.05915    0.43569    1.000
    Si3002   Si       0.60651    0.01443    0.37847    1.000
    Si3003   Si       0.61266    0.03325    0.48650    1.000
    N3004    N        0.51304    0.02343    0.49416    1.000
    Si3005   Si       0.71967    0.03908    0.45872    1.000
    N3006    N        0.68607    0.04928    0.43249    1.000
    Si3007   Si       0.67978    0.03148    0.39491    1.000
    N3008    N        0.71973    0.01636    0.38358    1.000
    N3009    N        0.60060    0.02092    0.58016    1.000
    N3010    N        0.58424    0.04951    0.51988    1.000
    Si3011   Si       0.57392    0.02945    0.61349    1.000
    N3012    N        0.51384    0.06276    0.55166    1.000
    Si3013   Si       0.49409    0.02939    0.53206    1.000
    Si3014   Si       0.61752    0.04891    0.55216    1.000
    Si3015   Si       0.73026    0.01895    0.52902    1.000
    N3016    N        0.71306    0.04066    0.56294    1.000
    Si3017   Si       0.70244    0.01916    0.59955    1.000
    N3018    N        0.63447    0.01536    0.52963    1.000
    N3019    N        0.70204    0.02171    0.49514    1.000
    Si3020   Si       0.50422    0.06002    0.68331    1.000
    N3021    N        0.60074    0.02550    0.64919    1.000
    Si3022   Si       0.57805    0.01508    0.68610    1.000
    N3023    N        0.53775    0.02786    0.67460    1.000
    N3024    N        0.49404    0.03851    0.72246    1.000
    N3025    N        0.58853    0.03576    0.72240    1.000
    N3026    N        0.73700    0.02531    0.62801    1.000
    N3027    N        0.66876    0.02925    0.62841    1.000
    Si3028   Si       0.63512    0.05319    0.64194    1.000
    Si3029   Si       0.66853    0.05935    0.70930    1.000
    N3030    N        0.67336    0.01876    0.69685    1.000
    Si3031   Si       0.56696    0.05200    0.80037    1.000
    N3032    N        0.54756    0.03142    0.83241    1.000
    Si3033   Si       0.50518    0.02542    0.83478    1.000
    N3034    N        0.59561    0.02186    0.78820    1.000
    Si3035   Si       0.49904    0.05420    0.76151    1.000
    Si3036   Si       0.57189    0.02769    0.86625    1.000
    N3037    N        0.71988    0.03993    0.76642    1.000
    Si3038   Si       0.69847    0.01764    0.83167    1.000
    N3039    N        0.67675    0.05294    0.81620    1.000
    N3040    N        0.65304    0.05223    0.74982    1.000
    Si3041   Si       0.61876    0.02406    0.75131    1.000
    N3042    N        0.74008    0.02891    0.83577    1.000
    N3043    N        0.59230    0.06416    0.87704    1.000
    N3044    N        0.53193    0.00989    0.96342    1.000
    N3045    N        0.54131    0.01728    0.89751    1.000
    N3046    N        0.59055    0.04704    0.98598    1.000
    Si3047   Si       0.52435    0.05697    0.90898    1.000
    Si3048   Si       0.48937    0.01860    0.95685    1.000
    Si3049   Si       0.55337    0.02723    0.99598    1.000
    N3050    N        0.70720    0.02584    0.92754    1.000
    Si3051   Si       0.70597    0.04395    0.96691    1.000
    N3052    N        0.62756    0.02883    0.92786    1.000
    N3053    N        0.67076    0.03222    0.99047    1.000
    Si3054   Si       0.62374    0.06607    0.90622    1.000
    Si3055   Si       0.69502    0.04756    0.89182    1.000
    Si3056   Si       0.55235    0.09522    0.02630    1.000
    N3057    N        0.58782    0.09356    0.05185    1.000
    N3058    N        0.54861    0.09692    0.10889    1.000
    Si3059   Si       0.58951    0.09335    0.09719    1.000
    Si3060   Si       0.62444    0.11104    0.03606    1.000
    Si3061   Si       0.69449    0.10093    0.04915    1.000
    N3062    N        0.65458    0.11141    0.06755    1.000
    N3063    N        0.72232    0.11233    0.08018    1.000
    N3064    N        0.64440    0.09135    0.00129    1.000
    Si3065   Si       0.51574    0.07632    0.13147    1.000
    N3066    N        0.58547    0.10875    0.21336    1.000
    N3067    N        0.51272    0.11208    0.22572    1.000
    Si3068   Si       0.55101    0.09048    0.22977    1.000
    N3069    N        0.49730    0.10345    0.15838    1.000
    N3070    N        0.68547    0.07649    0.12949    1.000
    Si3071   Si       0.70621    0.11170    0.11908    1.000
    Si3072   Si       0.62326    0.08879    0.20828    1.000
    N3073    N        0.65766    0.11121    0.22290    1.000
    N3074    N        0.72940    0.11078    0.22819    1.000
    N3075    N        0.62790    0.07677    0.16756    1.000
    N3076    N        0.53645    0.08947    0.34132    1.000
    Si3077   Si       0.52509    0.09346    0.29814    1.000
    N3078    N        0.55977    0.09629    0.27295    1.000
    Si3079   Si       0.64469    0.11034    0.29961    1.000
    N3080    N        0.63117    0.11716    0.33885    1.000
    N3081    N        0.68264    0.12423    0.28198    1.000
    Si3082   Si       0.69210    0.10011    0.24755    1.000
    Si3083   Si       0.53059    0.12071    0.37121    1.000
    Si3084   Si       0.52579    0.10192    0.45185    1.000
    N3085    N        0.56677    0.09974    0.43963    1.000
    N3086    N        0.50179    0.11357    0.40436    1.000
    Si3087   Si       0.59767    0.11729    0.41558    1.000
    N3088    N        0.53255    0.08634    0.49095    1.000
    N3089    N        0.57223    0.12605    0.38117    1.000
    Si3090   Si       0.65219    0.10098    0.37291    1.000
    N3091    N        0.63281    0.09315    0.41073    1.000
    N3092    N        0.67937    0.11482    0.45734    1.000
    Si3093   Si       0.71814    0.10937    0.47749    1.000
    N3094    N        0.63784    0.07092    0.48083    1.000
    Si3095   Si       0.65656    0.07876    0.44402    1.000
    Si3096   Si       0.51294    0.09987    0.52755    1.000
    N3097    N        0.51159    0.11492    0.59559    1.000
    Si3098   Si       0.51954    0.07223    0.59546    1.000
    N3099    N        0.56157    0.07051    0.60902    1.000
    Si3100   Si       0.58564    0.10319    0.62032    1.000
    Si3101   Si       0.65487    0.09849    0.51002    1.000
    N3102    N        0.63979    0.08547    0.54894    1.000
    N3103    N        0.70040    0.09530    0.51473    1.000
    Si3104   Si       0.71299    0.08368    0.55492    1.000
    N3105    N        0.69141    0.10405    0.58841    1.000
    Si3106   Si       0.64857    0.10795    0.58524    1.000
    N3107    N        0.62566    0.08659    0.61550    1.000
    N3108    N        0.53293    0.08918    0.70111    1.000
    N3109    N        0.59478    0.10113    0.72749    1.000
    N3110    N        0.58302    0.11226    0.66225    1.000
    Si3111   Si       0.56208    0.06980    0.72803    1.000
    Si3112   Si       0.54801    0.12634    0.68444    1.000
    Si3113   Si       0.49204    0.11221    0.63394    1.000
    N3114    N        0.50068    0.06897    0.63753    1.000
    N3115    N        0.71612    0.08993    0.65554    1.000
    N3116    N        0.70500    0.08233    0.72254    1.000
    Si3117   Si       0.71742    0.11448    0.69403    1.000
    Si3118   Si       0.61525    0.10889    0.69116    1.000
    Si3119   Si       0.70911    0.11982    0.62225    1.000
    N3120    N        0.64207    0.07615    0.67875    1.000
    N3121    N        0.57060    0.09156    0.81838    1.000
    Si3122   Si       0.53711    0.10349    0.79264    1.000
    N3123    N        0.50011    0.10497    0.81585    1.000
    Si3124   Si       0.56805    0.09899    0.86185    1.000
    Si3125   Si       0.49180    0.09573    0.85755    1.000
    N3126    N        0.54185    0.06764    0.76812    1.000
    N3127    N        0.69241    0.11421    0.78434    1.000
    Si3128   Si       0.66242    0.08513    0.84166    1.000
    N3129    N        0.64308    0.12162    0.83371    1.000
    Si3130   Si       0.68652    0.06686    0.77289    1.000
    Si3131   Si       0.73441    0.12829    0.78108    1.000
    N3132    N        0.52918    0.08676    0.87577    1.000
    N3133    N        0.56546    0.11329    0.98676    1.000
    Si3134   Si       0.53144    0.11395    0.95642    1.000
    N3135    N        0.54622    0.07652    0.94066    1.000
    Si3136   Si       0.58539    0.08144    0.96148    1.000
    N3137    N        0.49822    0.11044    0.98290    1.000
    N3138    N        0.66138    0.07055    0.88095    1.000
    N3139    N        0.61335    0.09536    0.93448    1.000
    Si3140   Si       0.67822    0.11061    0.98472    1.000
    N3141    N        0.70361    0.08672    0.95729    1.000
    N3142    N        0.72628    0.07734    0.88758    1.000
    Si3143   Si       0.72594    0.10045    0.92309    1.000
    Si3144   Si       0.52191    0.16825    0.02387    1.000
    N3145    N        0.54436    0.16554    0.11033    1.000
    N3146    N        0.60392    0.13299    0.11032    1.000
    Si3147   Si       0.52862    0.13111    0.08813    1.000
    N3148    N        0.53275    0.12952    0.04550    1.000
    N3149    N        0.61350    0.14972    0.02056    1.000
    N3150    N        0.69814    0.13025    0.01793    1.000
    Si3151   Si       0.64369    0.14447    0.09555    1.000
    Si3152   Si       0.71972    0.16679    0.01809    1.000
    N3153    N        0.65134    0.18194    0.07043    1.000
    N3154    N        0.48818    0.17753    0.15078    1.000
    N3155    N        0.55633    0.15731    0.17382    1.000
    Si3156   Si       0.57784    0.15735    0.13691    1.000
    Si3157   Si       0.57666    0.15169    0.21117    1.000
    N3158    N        0.73704    0.17980    0.14533    1.000
    Si3159   Si       0.69297    0.18329    0.13833    1.000
    Si3160   Si       0.64234    0.14736    0.23957    1.000
    N3161    N        0.61711    0.16760    0.21072    1.000
    N3162    N        0.67738    0.14673    0.12372    1.000
    N3163    N        0.51945    0.15914    0.35592    1.000
    Si3164   Si       0.53258    0.16561    0.31483    1.000
    Si3165   Si       0.59643    0.14157    0.34984    1.000
    N3166    N        0.57301    0.15109    0.31589    1.000
    N3167    N        0.50965    0.13551    0.29191    1.000
    Si3168   Si       0.57738    0.13633    0.27597    1.000
    Si3169   Si       0.51285    0.15011    0.24838    1.000
    N3170    N        0.55485    0.16033    0.24692    1.000
    Si3171   Si       0.66120    0.16877    0.36261    1.000
    Si3172   Si       0.69110    0.16873    0.28755    1.000
    N3173    N        0.66671    0.18184    0.25215    1.000
    N3174    N        0.73122    0.17458    0.34203    1.000
    N3175    N        0.61913    0.13176    0.27195    1.000
    N3176    N        0.73599    0.16450    0.27908    1.000
    N3177    N        0.61916    0.17202    0.37116    1.000
    N3178    N        0.51167    0.14373    0.46282    1.000
    N3179    N        0.68150    0.13217    0.37545    1.000
    N3180    N        0.73018    0.15688    0.41603    1.000
    N3181    N        0.61619    0.15150    0.43464    1.000
    Si3182   Si       0.72355    0.14482    0.37515    1.000
    Si3183   Si       0.65059    0.14797    0.45937    1.000
    Si3184   Si       0.53781    0.14484    0.57700    1.000
    N3185    N        0.57740    0.13552    0.59285    1.000
    Si3186   Si       0.60336    0.17205    0.58488    1.000
    N3187    N        0.53614    0.13677    0.53447    1.000
    Si3188   Si       0.52967    0.16144    0.50039    1.000
    N3189    N        0.49077    0.17846    0.51251    1.000
    N3190    N        0.52649    0.18540    0.57964    1.000
    Si3191   Si       0.63986    0.16805    0.53496    1.000
    N3192    N        0.64214    0.15323    0.57704    1.000
    N3193    N        0.64064    0.14008    0.50241    1.000
    Si3194   Si       0.67304    0.17424    0.60241    1.000
    N3195    N        0.51515    0.13781    0.65930    1.000
    N3196    N        0.56551    0.15586    0.71118    1.000
    Si3197   Si       0.49937    0.17933    0.65890    1.000
    Si3198   Si       0.60075    0.18104    0.70454    1.000
    Si3199   Si       0.66898    0.16560    0.67767    1.000
    N3200    N        0.63045    0.15153    0.69027    1.000
    N3201    N        0.70200    0.15337    0.70532    1.000
    Si3202   Si       0.72458    0.18406    0.72794    1.000
    N3203    N        0.67917    0.14953    0.63619    1.000
    N3204    N        0.54864    0.13995    0.77318    1.000
    Si3205   Si       0.52556    0.17529    0.77417    1.000
    Si3206   Si       0.58485    0.13668    0.75128    1.000
    N3207    N        0.52491    0.17784    0.87029    1.000
    Si3208   Si       0.65844    0.13805    0.79618    1.000
    N3209    N        0.70265    0.17483    0.86314    1.000
    N3210    N        0.62364    0.14042    0.77085    1.000
    Si3211   Si       0.62350    0.14711    0.86238    1.000
    N3212    N        0.67106    0.17882    0.79802    1.000
    N3213    N        0.58400    0.13703    0.87713    1.000
    N3214    N        0.53213    0.15059    0.93399    1.000
    Si3215   Si       0.55646    0.16625    0.89963    1.000
    N3216    N        0.59879    0.15902    0.94987    1.000
    Si3217   Si       0.58402    0.15327    0.98911    1.000
    Si3218   Si       0.50794    0.18130    0.95423    1.000
    N3219    N        0.49185    0.17862    0.99353    1.000
    Si3220   Si       0.63010    0.13500    0.93546    1.000
    N3221    N        0.66255    0.14532    0.96403    1.000
    N3222    N        0.65020    0.14251    0.89670    1.000
    Si3223   Si       0.68494    0.16703    0.90187    1.000
    N3224    N        0.71626    0.14384    0.92141    1.000
    Si3225   Si       0.52371    0.20194    0.09533    1.000
    N3226    N        0.56260    0.22344    0.09193    1.000
    N3227    N        0.60308    0.22496    0.03607    1.000
    Si3228   Si       0.57382    0.22231    0.00368    1.000
    N3229    N        0.48733    0.22626    0.10433    1.000
    N3230    N        0.50327    0.18402    0.06133    1.000
    N3231    N        0.55706    0.18436    0.00423    1.000
    Si3232   Si       0.68415    0.20999    0.06948    1.000
    N3233    N        0.69536    0.21707    0.11252    1.000
    N3234    N        0.71956    0.20057    0.04570    1.000
    N3235    N        0.65242    0.20735    0.00171    1.000
    Si3236   Si       0.62784    0.18771    0.03301    1.000
    Si3237   Si       0.58063    0.22579    0.13128    1.000
    N3238    N        0.54342    0.22424    0.15381    1.000
    N3239    N        0.51944    0.20935    0.20774    1.000
    N3240    N        0.60449    0.19410    0.14778    1.000
    Si3241   Si       0.49129    0.22380    0.24147    1.000
    Si3242   Si       0.52520    0.18836    0.17035    1.000
    Si3243   Si       0.63194    0.19440    0.18286    1.000
    N3244    N        0.67469    0.19470    0.17531    1.000
    N3245    N        0.63512    0.23067    0.21004    1.000
    Si3246   Si       0.68081    0.23785    0.19350    1.000
    N3247    N        0.53628    0.20647    0.30435    1.000
    Si3248   Si       0.57719    0.22409    0.29847    1.000
    Si3249   Si       0.50213    0.23436    0.31436    1.000
    N3250    N        0.60823    0.20151    0.27741    1.000
    N3251    N        0.60665    0.23268    0.33508    1.000
    Si3252   Si       0.70437    0.21006    0.34474    1.000
    N3253    N        0.72053    0.22259    0.30058    1.000
    Si3254   Si       0.63696    0.21225    0.31046    1.000
    Si3255   Si       0.63957    0.21596    0.25000    1.000
    N3256    N        0.66860    0.18513    0.32328    1.000
    N3257    N        0.65792    0.24068    0.28215    1.000
    Si3258   Si       0.54120    0.21346    0.45095    1.000
    N3259    N        0.49746    0.21759    0.45644    1.000
    N3260    N        0.55952    0.19022    0.41839    1.000
    N3261    N        0.55515    0.19774    0.49042    1.000
    Si3262   Si       0.60162    0.18563    0.40967    1.000
    N3263    N        0.61643    0.22545    0.48500    1.000
    N3264    N        0.67117    0.18606    0.45691    1.000
    N3265    N        0.68710    0.19662    0.38537    1.000
    N3266    N        0.72957    0.22598    0.43583    1.000
    Si3267   Si       0.70523    0.19219    0.42498    1.000
    N3268    N        0.61540    0.22808    0.41019    1.000
    Si3269   Si       0.65992    0.21661    0.48442    1.000
    Si3270   Si       0.54771    0.21357    0.60729    1.000
    Si3271   Si       0.58612    0.21870    0.51465    1.000
    N3272    N        0.59019    0.20836    0.60465    1.000
    Si3273   Si       0.50000    0.20146    0.55039    1.000
    N3274    N        0.50799    0.23739    0.52792    1.000
    N3275    N        0.60118    0.18541    0.54065    1.000
    Si3276   Si       0.62417    0.23520    0.61242    1.000
    N3277    N        0.65750    0.21261    0.59554    1.000
    N3278    N        0.66678    0.20141    0.52608    1.000
    Si3279   Si       0.68731    0.21817    0.56252    1.000
    N3280    N        0.71162    0.18478    0.58157    1.000
    N3281    N        0.58429    0.21758    0.68893    1.000
    Si3282   Si       0.54609    0.23362    0.67498    1.000
    N3283    N        0.53293    0.20413    0.64560    1.000
    Si3284   Si       0.49149    0.21812    0.71790    1.000
    Si3285   Si       0.71109    0.24451    0.72340    1.000
    N3286    N        0.62255    0.20216    0.73674    1.000
    N3287    N        0.67536    0.20619    0.66885    1.000
    N3288    N        0.69370    0.21080    0.74289    1.000
    N3289    N        0.74137    0.21755    0.70578    1.000
    N3290    N        0.53085    0.20600    0.80646    1.000
    Si3291   Si       0.53788    0.21502    0.84801    1.000
    Si3292   Si       0.53542    0.23720    0.77763    1.000
    N3293    N        0.57642    0.23499    0.84573    1.000
    N3294    N        0.52272    0.20955    0.74576    1.000
    N3295    N        0.50782    0.24408    0.85932    1.000
    Si3296   Si       0.67374    0.19690    0.83808    1.000
    Si3297   Si       0.65689    0.20220    0.76360    1.000
    N3298    N        0.63302    0.19047    0.85499    1.000
    N3299    N        0.68532    0.23983    0.83483    1.000
    Si3300   Si       0.60516    0.21897    0.87273    1.000
    N3301    N        0.52585    0.22033    0.95065    1.000
    Si3302   Si       0.56442    0.23235    0.93321    1.000
    N3303    N        0.57916    0.20414    0.90408    1.000
    N3304    N        0.59030    0.23879    0.96698    1.000
    Si3305   Si       0.72890    0.22641    0.95798    1.000
    N3306    N        0.67296    0.20045    0.92866    1.000
    N3307    N        0.71609    0.19179    0.98173    1.000
    Si3308   Si       0.67329    0.18599    0.96932    1.000
    Si3309   Si       0.51696    0.28276    0.02425    1.000
    N3310    N        0.57863    0.28785    0.07850    1.000
    N3311    N        0.50932    0.28921    0.10409    1.000
    N3312    N        0.55062    0.25445    0.02462    1.000
    Si3313   Si       0.57563    0.24799    0.05993    1.000
    Si3314   Si       0.59598    0.29358    0.11930    1.000
    Si3315   Si       0.68825    0.28693    0.06920    1.000
    N3316    N        0.62898    0.28343    0.00848    1.000
    N3317    N        0.72651    0.29082    0.05145    1.000
    N3318    N        0.69406    0.28630    0.11200    1.000
    N3319    N        0.67031    0.24864    0.05458    1.000
    Si3320   Si       0.73221    0.29663    0.00890    1.000
    Si3321   Si       0.64161    0.24435    0.02224    1.000
    N3322    N        0.60328    0.25998    0.14413    1.000
    N3323    N        0.50540    0.27472    0.17442    1.000
    N3324    N        0.57366    0.26235    0.20821    1.000
    Si3325   Si       0.53376    0.24852    0.19527    1.000
    N3326    N        0.51690    0.26243    0.23892    1.000
    Si3327   Si       0.55903    0.28330    0.24383    1.000
    Si3328   Si       0.52048    0.30393    0.14543    1.000
    Si3329   Si       0.61598    0.26578    0.18765    1.000
    Si3330   Si       0.66466    0.30125    0.14112    1.000
    Si3331   Si       0.71771    0.25023    0.12867    1.000
    N3332    N        0.70150    0.24971    0.23195    1.000
    N3333    N        0.72161    0.24488    0.17212    1.000
    N3334    N        0.66131    0.27109    0.17136    1.000
    Si3335   Si       0.73724    0.26562    0.21064    1.000
    N3336    N        0.51916    0.27300    0.32298    1.000
    N3337    N        0.57660    0.26120    0.27695    1.000
    Si3338   Si       0.55019    0.28910    0.35207    1.000
    Si3339   Si       0.49906    0.29864    0.25256    1.000
    Si3340   Si       0.59934    0.29347    0.29375    1.000
    N3341    N        0.70652    0.29378    0.28886    1.000
    N3342    N        0.71658    0.25154    0.35865    1.000
    Si3343   Si       0.70010    0.25156    0.27571    1.000
    N3344    N        0.55932    0.25166    0.44525    1.000
    N3345    N        0.57463    0.27240    0.38338    1.000
    Si3346   Si       0.54450    0.27856    0.41574    1.000
    N3347    N        0.51012    0.25223    0.40275    1.000
    Si3348   Si       0.60310    0.24724    0.44854    1.000
    Si3349   Si       0.61319    0.25297    0.37564    1.000
    N3350    N        0.61743    0.28624    0.45732    1.000
    Si3351   Si       0.48700    0.28554    0.39136    1.000
    N3352    N        0.65033    0.27948    0.37350    1.000
    N3353    N        0.71028    0.29209    0.41653    1.000
    Si3354   Si       0.71081    0.26245    0.44871    1.000
    N3355    N        0.67579    0.25368    0.47339    1.000
    N3356    N        0.73662    0.28403    0.47490    1.000
    Si3357   Si       0.64950    0.28644    0.48491    1.000
    Si3358   Si       0.69254    0.28152    0.37935    1.000
    Si3359   Si       0.53480    0.26290    0.54971    1.000
    N3360    N        0.57524    0.25677    0.53479    1.000
    Si3361   Si       0.60436    0.28381    0.55271    1.000
    Si3362   Si       0.51971    0.28821    0.60382    1.000
    N3363    N        0.53597    0.25090    0.59175    1.000
    N3364    N        0.50998    0.29873    0.56073    1.000
    N3365    N        0.62509    0.26923    0.58651    1.000
    N3366    N        0.69297    0.26249    0.56258    1.000
    Si3367   Si       0.66571    0.28136    0.59147    1.000
    Si3368   Si       0.72438    0.29094    0.55532    1.000
    N3369    N        0.63655    0.29549    0.52582    1.000
    N3370    N        0.56428    0.27039    0.66221    1.000
    Si3371   Si       0.60142    0.25929    0.68091    1.000
    N3372    N        0.61020    0.27524    0.72050    1.000
    N3373    N        0.50925    0.24631    0.69264    1.000
    Si3374   Si       0.67412    0.24844    0.66104    1.000
    N3375    N        0.69072    0.27034    0.69437    1.000
    N3376    N        0.69098    0.27001    0.62793    1.000
    Si3377   Si       0.72977    0.28784    0.63081    1.000
    N3378    N        0.63103    0.25220    0.65135    1.000
    Si3379   Si       0.58944    0.26491    0.81669    1.000
    N3380    N        0.51147    0.27281    0.77764    1.000
    N3381    N        0.57551    0.24886    0.77730    1.000
    Si3382   Si       0.60924    0.24377    0.74987    1.000
    Si3383   Si       0.66239    0.26392    0.80837    1.000
    N3384    N        0.62809    0.27837    0.83211    1.000
    Si3385   Si       0.71987    0.26370    0.84077    1.000
    N3386    N        0.73094    0.27065    0.75088    1.000
    N3387    N        0.68226    0.30005    0.79739    1.000
    N3388    N        0.64443    0.24284    0.77492    1.000
    Si3389   Si       0.49818    0.25388    0.95566    1.000
    N3390    N        0.50126    0.28546    0.98400    1.000
    N3391    N        0.54823    0.26960    0.91593    1.000
    Si3392   Si       0.51481    0.27448    0.88944    1.000
    N3393    N        0.73862    0.25540    0.99307    1.000
    N3394    N        0.64982    0.27803    0.94554    1.000
    N3395    N        0.63327    0.24699    0.88921    1.000
    Si3396   Si       0.73218    0.27988    0.90606    1.000
    Si3397   Si       0.63009    0.28734    0.87427    1.000
    Si3398   Si       0.61326    0.27712    0.96833    1.000
    N3399    N        0.71345    0.29801    0.86862    1.000
    Si3400   Si       0.69058    0.29449    0.95355    1.000
    N3401    N        0.70645    0.25670    0.93426    1.000
    N3402    N        0.74091    0.24381    0.87436    1.000
    Si3403   Si       0.66616    0.24221    0.92153    1.000
    N3404    N        0.52628    0.31929    0.04427    1.000
    Si3405   Si       0.54076    0.31400    0.08444    1.000
    N3406    N        0.52825    0.35344    0.09970    1.000
    Si3407   Si       0.52888    0.35994    0.02948    1.000
    Si3408   Si       0.65585    0.31958    0.01400    1.000
    N3409    N        0.66290    0.32072    0.05665    1.000
    Si3410   Si       0.63687    0.34219    0.08497    1.000
    N3411    N        0.63294    0.31374    0.11701    1.000
    N3412    N        0.63136    0.35242    0.99924    1.000
    N3413    N        0.48855    0.33480    0.15076    1.000
    N3414    N        0.53914    0.33409    0.18996    1.000
    Si3415   Si       0.57754    0.33363    0.16933    1.000
    N3416    N        0.56121    0.31307    0.13355    1.000
    Si3417   Si       0.49497    0.33926    0.19410    1.000
    N3418    N        0.61027    0.31397    0.18790    1.000
    N3419    N        0.68133    0.33548    0.16442    1.000
    N3420    N        0.66461    0.31817    0.23534    1.000
    N3421    N        0.73244    0.30842    0.20940    1.000
    Si3422   Si       0.62394    0.33001    0.22581    1.000
    Si3423   Si       0.69348    0.32741    0.20345    1.000
    N3424    N        0.57824    0.30956    0.32772    1.000
    N3425    N        0.53457    0.31832    0.26259    1.000
    Si3426   Si       0.56497    0.34916    0.26618    1.000
    N3427    N        0.59542    0.31688    0.25467    1.000
    N3428    N        0.50064    0.34474    0.33606    1.000
    Si3429   Si       0.58542    0.35120    0.33701    1.000
    N3430    N        0.62411    0.34916    0.35763    1.000
    N3431    N        0.69488    0.31888    0.35258    1.000
    Si3432   Si       0.65019    0.31567    0.34631    1.000
    Si3433   Si       0.67168    0.31769    0.27809    1.000
    Si3434   Si       0.72818    0.31013    0.32354    1.000
    N3435    N        0.64050    0.30320    0.30560    1.000
    N3436    N        0.67513    0.35979    0.28756    1.000
    Si3437   Si       0.52134    0.34967    0.37375    1.000
    N3438    N        0.55574    0.31790    0.43739    1.000
    N3439    N        0.49940    0.34681    0.48140    1.000
    Si3440   Si       0.59587    0.32205    0.45552    1.000
    Si3441   Si       0.54152    0.34590    0.46866    1.000
    N3442    N        0.52321    0.30760    0.38164    1.000
    N3443    N        0.57752    0.33858    0.49237    1.000
    N3444    N        0.62280    0.35281    0.44021    1.000
    N3445    N        0.73359    0.34579    0.46241    1.000
    Si3446   Si       0.70385    0.35845    0.37533    1.000
    Si3447   Si       0.66718    0.35536    0.44894    1.000
    Si3448   Si       0.71182    0.31583    0.48926    1.000
    N3449    N        0.67146    0.32019    0.47383    1.000
    N3450    N        0.58851    0.32579    0.56187    1.000
    Si3451   Si       0.57621    0.34250    0.59943    1.000
    Si3452   Si       0.59627    0.35084    0.52863    1.000
    N3453    N        0.54519    0.31858    0.61794    1.000
    N3454    N        0.66196    0.32368    0.58761    1.000
    Si3455   Si       0.66195    0.32952    0.54312    1.000
    N3456    N        0.70337    0.31966    0.53081    1.000
    N3457    N        0.51392    0.31491    0.68213    1.000
    N3458    N        0.59019    0.32715    0.68341    1.000
    Si3459   Si       0.59991    0.31753    0.72607    1.000
    Si3460   Si       0.55386    0.31214    0.66096    1.000
    N3461    N        0.61227    0.34813    0.62706    1.000
    Si3462   Si       0.51125    0.35853    0.68629    1.000
    N3463    N        0.66257    0.33897    0.67076    1.000
    N3464    N        0.70399    0.32962    0.72961    1.000
    N3465    N        0.72629    0.31979    0.65860    1.000
    Si3466   Si       0.69566    0.31561    0.68961    1.000
    Si3467   Si       0.65514    0.34752    0.62635    1.000
    N3468    N        0.62569    0.35010    0.73653    1.000
    Si3469   Si       0.56481    0.32134    0.85587    1.000
    N3470    N        0.51717    0.34301    0.78599    1.000
    N3471    N        0.56332    0.31910    0.74898    1.000
    Si3472   Si       0.54506    0.35869    0.75572    1.000
    Si3473   Si       0.54086    0.30474    0.78415    1.000
    N3474    N        0.56358    0.30016    0.82004    1.000
    N3475    N        0.69905    0.36094    0.83736    1.000
    Si3476   Si       0.66518    0.32951    0.82816    1.000
    Si3477   Si       0.71121    0.30637    0.76453    1.000
    N3478    N        0.64157    0.35770    0.80591    1.000
    N3479    N        0.65045    0.32641    0.87046    1.000
    N3480    N        0.59050    0.31358    0.95890    1.000
    N3481    N        0.59323    0.30892    0.88871    1.000
    Si3482   Si       0.56635    0.30822    0.92356    1.000
    N3483    N        0.52610    0.31189    0.87529    1.000
    N3484    N        0.54411    0.34474    0.92663    1.000
    Si3485   Si       0.60470    0.35375    0.96540    1.000
    Si3486   Si       0.50861    0.34353    0.90051    1.000
    N3487    N        0.51904    0.35390    0.98876    1.000
    N3488    N        0.71368    0.31941    0.92783    1.000
    Si3489   Si       0.61436    0.34839    0.88732    1.000
    Si3490   Si       0.69536    0.33899    0.88160    1.000
    N3491    N        0.69148    0.30685    0.99358    1.000
    Si3492   Si       0.56071    0.37936    0.08661    1.000
    N3493    N        0.56158    0.38265    0.04205    1.000
    Si3494   Si       0.57186    0.41184    0.01218    1.000
    N3495    N        0.60433    0.37006    0.09359    1.000
    N3496    N        0.49570    0.38564    0.04466    1.000
    N3497    N        0.55347    0.41740    0.10382    1.000
    Si3498   Si       0.63315    0.40072    0.10784    1.000
    Si3499   Si       0.64159    0.39362    0.00688    1.000
    Si3500   Si       0.69847    0.38277    0.06308    1.000
    N3501    N        0.68230    0.38860    0.02426    1.000
    N3502    N        0.66850    0.37270    0.09674    1.000
    Si3503   Si       0.54373    0.38172    0.19772    1.000
    N3504    N        0.58238    0.37637    0.17699    1.000
    N3505    N        0.49938    0.38092    0.20830    1.000
    N3506    N        0.55149    0.38285    0.24142    1.000
    N3507    N        0.53431    0.42110    0.17615    1.000
    Si3508   Si       0.72652    0.39568    0.18981    1.000
    Si3509   Si       0.67109    0.37705    0.24560    1.000
    N3510    N        0.70441    0.36816    0.21858    1.000
    Si3511   Si       0.68029    0.37025    0.13951    1.000
    Si3512   Si       0.62041    0.39467    0.18865    1.000
    N3513    N        0.63409    0.37168    0.22295    1.000
    N3514    N        0.72003    0.38758    0.14445    1.000
    N3515    N        0.64393    0.39602    0.15149    1.000
    N3516    N        0.58083    0.37325    0.29925    1.000
    Si3517   Si       0.51538    0.40091    0.25404    1.000
    N3518    N        0.56104    0.36806    0.36833    1.000
    Si3519   Si       0.70730    0.38177    0.30854    1.000
    N3520    N        0.70188    0.39340    0.34868    1.000
    N3521    N        0.73097    0.40247    0.27848    1.000
    Si3522   Si       0.57307    0.40821    0.38184    1.000
    N3523    N        0.50562    0.36907    0.40920    1.000
    Si3524   Si       0.52044    0.40239    0.43306    1.000
    N3525    N        0.54536    0.38886    0.46455    1.000
    Si3526   Si       0.63056    0.36742    0.39775    1.000
    N3527    N        0.67335    0.36048    0.40618    1.000
    N3528    N        0.61362    0.40694    0.39844    1.000
    N3529    N        0.68644    0.38960    0.46665    1.000
    Si3530   Si       0.73050    0.38614    0.47557    1.000
    N3531    N        0.58267    0.39298    0.53145    1.000
    N3532    N        0.56403    0.38376    0.59839    1.000
    N3533    N        0.51710    0.40736    0.52063    1.000
    Si3534   Si       0.55386    0.40906    0.50189    1.000
    Si3535   Si       0.57513    0.41558    0.56934    1.000
    N3536    N        0.49932    0.38699    0.61890    1.000
    N3537    N        0.73087    0.39666    0.51751    1.000
    Si3538   Si       0.63130    0.40765    0.53238    1.000
    N3539    N        0.63726    0.36313    0.52942    1.000
    Si3540   Si       0.53920    0.39812    0.63180    1.000
    N3541    N        0.52188    0.37752    0.72514    1.000
    N3542    N        0.54826    0.37073    0.66416    1.000
    Si3543   Si       0.59215    0.36553    0.66361    1.000
    Si3544   Si       0.50511    0.41696    0.73380    1.000
    N3545    N        0.61615    0.39455    0.68442    1.000
    Si3546   Si       0.71027    0.37249    0.73684    1.000
    N3547    N        0.67040    0.38732    0.61970    1.000
    N3548    N        0.67524    0.39103    0.71871    1.000
    Si3549   Si       0.64527    0.36673    0.69942    1.000
    N3550    N        0.57730    0.38378    0.77180    1.000
    Si3551   Si       0.55461    0.39465    0.86095    1.000
    N3552    N        0.58452    0.36344    0.85954    1.000
    N3553    N        0.70415    0.38894    0.77882    1.000
    Si3554   Si       0.67207    0.39141    0.80803    1.000
    Si3555   Si       0.62075    0.37349    0.77242    1.000
    N3556    N        0.64281    0.41437    0.77889    1.000
    Si3557   Si       0.72948    0.36670    0.80483    1.000
    N3558    N        0.67261    0.41859    0.84245    1.000
    N3559    N        0.51714    0.37828    0.87552    1.000
    N3560    N        0.51981    0.41352    0.94270    1.000
    Si3561   Si       0.53678    0.37434    0.95547    1.000
    N3562    N        0.57477    0.38545    0.97487    1.000
    N3563    N        0.65732    0.40655    0.96842    1.000
    Si3564   Si       0.70282    0.39915    0.87282    1.000
    N3565    N        0.67828    0.37504    0.90151    1.000
    Si3566   Si       0.69847    0.40834    0.98800    1.000
    N3567    N        0.61915    0.36577    0.92594    1.000
    Si3568   Si       0.64941    0.39914    0.92611    1.000
    N3569    N        0.72361    0.38207    0.96451    1.000
    Si3570   Si       0.73653    0.35708    0.93140    1.000
    N3571    N        0.49892    0.45142    0.06348    1.000
    Si3572   Si       0.53785    0.45548    0.08367    1.000
    N3573    N        0.57541    0.47062    0.06284    1.000
    N3574    N        0.53723    0.43913    0.00498    1.000
    Si3575   Si       0.50181    0.42648    0.02662    1.000
    N3576    N        0.61273    0.42394    0.02361    1.000
    Si3577   Si       0.61614    0.45967    0.05099    1.000
    N3578    N        0.63142    0.43868    0.08857    1.000
    Si3579   Si       0.71969    0.45011    0.04558    1.000
    N3580    N        0.71158    0.44575    0.00212    1.000
    N3581    N        0.71001    0.42236    0.07856    1.000
    Si3582   Si       0.62611    0.46935    0.11940    1.000
    Si3583   Si       0.72459    0.42314    0.12039    1.000
    N3584    N        0.53523    0.47378    0.12403    1.000
    N3585    N        0.59380    0.45520    0.14621    1.000
    Si3586   Si       0.55503    0.43864    0.14076    1.000
    N3587    N        0.50655    0.43973    0.23469    1.000
    Si3588   Si       0.49520    0.42311    0.19772    1.000
    Si3589   Si       0.62042    0.46724    0.18056    1.000
    N3590    N        0.62178    0.43443    0.20740    1.000
    N3591    N        0.65329    0.47621    0.15268    1.000
    N3592    N        0.72914    0.43231    0.21245    1.000
    N3593    N        0.71880    0.45465    0.14845    1.000
    Si3594   Si       0.63608    0.43965    0.24804    1.000
    N3595    N        0.56473    0.43088    0.34324    1.000
    Si3596   Si       0.52142    0.43543    0.33420    1.000
    N3597    N        0.60747    0.43619    0.28026    1.000
    Si3598   Si       0.51319    0.46404    0.26966    1.000
    N3599    N        0.53199    0.42766    0.29156    1.000
    Si3600   Si       0.58138    0.47184    0.35475    1.000
    Si3601   Si       0.57482    0.41651    0.30021    1.000
    Si3602   Si       0.71705    0.43199    0.36051    1.000
    N3603    N        0.71539    0.47170    0.27484    1.000
    Si3604   Si       0.71439    0.43187    0.25435    1.000
    N3605    N        0.69157    0.46610    0.37317    1.000
    N3606    N        0.67224    0.41864    0.25653    1.000
    N3607    N        0.54616    0.42819    0.40899    1.000
    N3608    N        0.60041    0.46752    0.43995    1.000
    Si3609   Si       0.55793    0.46741    0.42326    1.000
    Si3610   Si       0.60471    0.45935    0.48321    1.000
    N3611    N        0.63226    0.42821    0.49450    1.000
    N3612    N        0.62123    0.46925    0.37499    1.000
    N3613    N        0.66671    0.44463    0.43221    1.000
    Si3614   Si       0.70349    0.46152    0.41522    1.000
    Si3615   Si       0.66829    0.42854    0.47178    1.000
    N3616    N        0.70129    0.44953    0.49247    1.000
    N3617    N        0.73137    0.42521    0.40160    1.000
    Si3618   Si       0.62617    0.44664    0.41131    1.000
    Si3619   Si       0.50672    0.44067    0.54681    1.000
    N3620    N        0.54119    0.44731    0.57495    1.000
    Si3621   Si       0.53201    0.46738    0.61376    1.000
    N3622    N        0.50111    0.47551    0.52120    1.000
    N3623    N        0.56485    0.45073    0.49806    1.000
    N3624    N        0.61426    0.43206    0.56846    1.000
    Si3625   Si       0.65313    0.45023    0.57367    1.000
    Si3626   Si       0.70851    0.43110    0.52894    1.000
    N3627    N        0.67704    0.45847    0.60874    1.000
    N3628    N        0.72694    0.46288    0.55279    1.000
    Si3629   Si       0.71959    0.46649    0.59653    1.000
    N3630    N        0.73154    0.42640    0.60874    1.000
    N3631    N        0.67184    0.41975    0.54863    1.000
    N3632    N        0.55010    0.43926    0.64430    1.000
    Si3633   Si       0.54336    0.45771    0.68297    1.000
    N3634    N        0.57680    0.45800    0.70846    1.000
    N3635    N        0.50865    0.43723    0.69585    1.000
    N3636    N        0.49171    0.45994    0.62783    1.000
    Si3637   Si       0.61305    0.43961    0.68969    1.000
    N3638    N        0.62603    0.45595    0.65161    1.000
    N3639    N        0.70571    0.43186    0.66990    1.000
    N3640    N        0.70337    0.45310    0.74122    1.000
    N3641    N        0.64639    0.44906    0.71612    1.000
    Si3642   Si       0.68762    0.45814    0.70003    1.000
    Si3643   Si       0.69393    0.42118    0.62982    1.000
    N3644    N        0.59105    0.45265    0.77422    1.000
    N3645    N        0.52358    0.43382    0.76795    1.000
    Si3646   Si       0.57399    0.45431    0.85329    1.000
    Si3647   Si       0.50733    0.47475    0.77742    1.000
    Si3648   Si       0.55929    0.42102    0.78515    1.000
    N3649    N        0.55579    0.42372    0.82879    1.000
    N3650    N        0.61311    0.45503    0.83777    1.000
    Si3651   Si       0.62766    0.45095    0.79787    1.000
    N3652    N        0.72404    0.46261    0.80884    1.000
    Si3653   Si       0.73842    0.46229    0.76631    1.000
    Si3654   Si       0.66904    0.42527    0.74497    1.000
    N3655    N        0.74102    0.41676    0.85804    1.000
    N3656    N        0.56288    0.46817    0.93988    1.000
    Si3657   Si       0.53716    0.47353    0.97580    1.000
    N3658    N        0.50860    0.45828    0.88861    1.000
    Si3659   Si       0.60634    0.46761    0.92397    1.000
    Si3660   Si       0.53874    0.44074    0.91512    1.000
    N3661    N        0.56775    0.42730    0.88767    1.000
    N3662    N        0.69588    0.43630    0.89939    1.000
    N3663    N        0.63107    0.43536    0.90982    1.000
    Si3664   Si       0.72861    0.46415    0.90747    1.000
    Si3665   Si       0.65815    0.44535    0.87569    1.000
    N3666    N        0.48700    0.52713    0.01458    1.000
    N3667    N        0.63868    0.49283    0.03139    1.000
    Si3668   Si       0.72464    0.51171    0.09145    1.000
    N3669    N        0.62976    0.50487    0.09530    1.000
    Si3670   Si       0.66170    0.50869    0.06446    1.000
    N3671    N        0.69968    0.48683    0.06447    1.000
    N3672    N        0.73106    0.51266    0.00760    1.000
    N3673    N        0.50869    0.53326    0.12536    1.000
    Si3674   Si       0.54000    0.51239    0.14396    1.000
    N3675    N        0.54448    0.52361    0.18825    1.000
    Si3676   Si       0.53079    0.53098    0.22802    1.000
    N3677    N        0.58189    0.52670    0.13796    1.000
    Si3678   Si       0.58720    0.53055    0.18096    1.000
    N3679    N        0.71931    0.50117    0.19131    1.000
    Si3680   Si       0.63566    0.51920    0.23681    1.000
    N3681    N        0.61476    0.50583    0.19973    1.000
    N3682    N        0.70104    0.52115    0.12715    1.000
    Si3683   Si       0.69250    0.48889    0.15552    1.000
    N3684    N        0.58246    0.49233    0.31738    1.000
    Si3685   Si       0.56698    0.52002    0.28827    1.000
    N3686    N        0.53912    0.49944    0.26394    1.000
    N3687    N        0.60566    0.51744    0.26813    1.000
    Si3688   Si       0.52019    0.50552    0.36926    1.000
    N3689    N        0.51015    0.47590    0.33830    1.000
    Si3690   Si       0.61755    0.48167    0.29063    1.000
    Si3691   Si       0.67942    0.49468    0.28426    1.000
    N3692    N        0.66047    0.52904    0.35718    1.000
    Si3693   Si       0.65758    0.48679    0.35770    1.000
    N3694    N        0.69474    0.53314    0.29630    1.000
    N3695    N        0.65124    0.48074    0.25360    1.000
    N3696    N        0.65348    0.48069    0.31520    1.000
    N3697    N        0.53110    0.48384    0.45264    1.000
    N3698    N        0.55719    0.48860    0.38579    1.000
    Si3699   Si       0.49488    0.50332    0.44028    1.000
    Si3700   Si       0.53584    0.48223    0.49556    1.000
    Si3701   Si       0.72243    0.48696    0.48049    1.000
    N3702    N        0.72968    0.48876    0.43840    1.000
    N3703    N        0.64880    0.52943    0.42712    1.000
    N3704    N        0.62491    0.50024    0.48831    1.000
    N3705    N        0.69285    0.51843    0.48520    1.000
    Si3706   Si       0.61338    0.51052    0.44686    1.000
    N3707    N        0.54471    0.50816    0.61282    1.000
    N3708    N        0.59315    0.51936    0.55994    1.000
    N3709    N        0.55043    0.52173    0.50508    1.000
    Si3710   Si       0.63461    0.52180    0.57269    1.000
    Si3711   Si       0.65730    0.51098    0.51382    1.000
    N3712    N        0.65450    0.48786    0.55106    1.000
    N3713    N        0.63600    0.51582    0.61632    1.000
    Si3714   Si       0.72845    0.53877    0.60899    1.000
    N3715    N        0.74177    0.49658    0.61587    1.000
    N3716    N        0.52803    0.49853    0.67572    1.000
    Si3717   Si       0.54985    0.52717    0.65477    1.000
    N3718    N        0.58790    0.53479    0.67398    1.000
    Si3719   Si       0.57609    0.48209    0.74655    1.000
    Si3720   Si       0.65694    0.48197    0.63892    1.000
    Si3721   Si       0.70640    0.52783    0.67873    1.000
    N3722    N        0.68018    0.49268    0.67222    1.000
    N3723    N        0.53904    0.50009    0.76020    1.000
    Si3724   Si       0.51011    0.49204    0.86158    1.000
    N3725    N        0.55431    0.49356    0.84973    1.000
    Si3726   Si       0.56956    0.52928    0.82854    1.000
    N3727    N        0.61077    0.52247    0.81989    1.000
    N3728    N        0.60551    0.51513    0.74842    1.000
    N3729    N        0.49490    0.48528    0.81692    1.000
    Si3730   Si       0.62372    0.49717    0.85342    1.000
    Si3731   Si       0.63227    0.52024    0.78293    1.000
    N3732    N        0.70457    0.52572    0.82387    1.000
    Si3733   Si       0.68976    0.48544    0.81990    1.000
    N3734    N        0.66469    0.48416    0.85840    1.000
    N3735    N        0.65542    0.48280    0.79074    1.000
    Si3736   Si       0.73955    0.52509    0.85163    1.000
    N3737    N        0.74034    0.48415    0.87047    1.000
    Si3738   Si       0.58448    0.52118    0.96414    1.000
    N3739    N        0.60278    0.49816    0.89102    1.000
    Si3740   Si       0.56455    0.52360    0.89258    1.000
    N3741    N        0.51964    0.52122    0.89411    1.000
    N3742    N        0.55055    0.51330    0.98891    1.000
    N3743    N        0.49586    0.47835    0.96259    1.000
    Si3744   Si       0.73186    0.47758    0.98050    1.000
    Si3745   Si       0.64251    0.51009    0.99354    1.000
    N3746    N        0.61922    0.49174    0.96002    1.000
    N3747    N        0.72338    0.49350    0.94168    1.000
    N3748    N        0.59830    0.56853    0.08182    1.000
    Si3749   Si       0.55556    0.57495    0.07017    1.000
    Si3750   Si       0.50089    0.57258    0.11077    1.000
    N3751    N        0.53248    0.54073    0.05684    1.000
    N3752    N        0.53682    0.59374    0.10344    1.000
    Si3753   Si       0.53011    0.54182    0.01269    1.000
    Si3754   Si       0.61134    0.54004    0.11148    1.000
    N3755    N        0.71694    0.58076    0.01994    1.000
    Si3756   Si       0.67996    0.57954    0.04616    1.000
    N3757    N        0.67506    0.54889    0.07451    1.000
    Si3758   Si       0.68243    0.55824    0.11659    1.000
    N3759    N        0.64371    0.58927    0.02572    1.000
    N3760    N        0.59857    0.57194    0.18925    1.000
    Si3761   Si       0.58587    0.58683    0.22990    1.000
    N3762    N        0.54927    0.56810    0.24125    1.000
    N3763    N        0.64225    0.56317    0.13227    1.000
    Si3764   Si       0.71558    0.53911    0.21144    1.000
    N3765    N        0.67166    0.54543    0.22682    1.000
    Si3766   Si       0.63061    0.59117    0.16648    1.000
    N3767    N        0.73067    0.57400    0.19096    1.000
    N3768    N        0.70165    0.59591    0.12999    1.000
    Si3769   Si       0.66117    0.58712    0.23029    1.000
    N3770    N        0.55947    0.55922    0.30361    1.000
    Si3771   Si       0.56447    0.56813    0.34653    1.000
    N3772    N        0.49618    0.58732    0.28990    1.000
    Si3773   Si       0.53989    0.58966    0.27820    1.000
    Si3774   Si       0.50050    0.56253    0.32647    1.000
    N3775    N        0.53003    0.54239    0.35430    1.000
    Si3776   Si       0.68173    0.55821    0.33073    1.000
    N3777    N        0.71850    0.56709    0.35452    1.000
    Si3778   Si       0.73533    0.54367    0.28252    1.000
    N3779    N        0.62357    0.58525    0.25405    1.000
    N3780    N        0.65340    0.59113    0.32267    1.000
    N3781    N        0.59740    0.56087    0.37615    1.000
    Si3782   Si       0.57724    0.56876    0.41476    1.000
    N3783    N        0.53602    0.57814    0.41097    1.000
    N3784    N        0.54389    0.58973    0.47458    1.000
    Si3785   Si       0.54528    0.54449    0.46911    1.000
    N3786    N        0.50384    0.54280    0.45656    1.000
    Si3787   Si       0.51049    0.59319    0.44625    1.000
    N3788    N        0.57900    0.53566    0.44287    1.000
    N3789    N        0.72216    0.55739    0.43614    1.000
    Si3790   Si       0.68269    0.54389    0.44992    1.000
    N3791    N        0.66150    0.58859    0.38985    1.000
    Si3792   Si       0.64008    0.55144    0.38955    1.000
    N3793    N        0.66299    0.57927    0.46586    1.000
    N3794    N        0.55173    0.56725    0.55821    1.000
    Si3795   Si       0.57725    0.54611    0.52919    1.000
    N3796    N        0.59997    0.57465    0.50537    1.000
    N3797    N        0.58663    0.56403    0.61417    1.000
    Si3798   Si       0.56503    0.53684    0.58766    1.000
    Si3799   Si       0.68003    0.57788    0.55767    1.000
    N3800    N        0.65228    0.54826    0.53967    1.000
    N3801    N        0.71207    0.55253    0.57308    1.000
    Si3802   Si       0.64238    0.58467    0.50450    1.000
    N3803    N        0.66190    0.59744    0.59109    1.000
    Si3804   Si       0.50116    0.58502    0.63123    1.000
    Si3805   Si       0.59254    0.54517    0.71723    1.000
    N3806    N        0.55003    0.55625    0.72839    1.000
    N3807    N        0.52396    0.56322    0.66030    1.000
    Si3808   Si       0.51567    0.56538    0.70152    1.000
    Si3809   Si       0.67859    0.58123    0.62805    1.000
    Si3810   Si       0.72399    0.57938    0.73886    1.000
    N3811    N        0.64371    0.57763    0.65376    1.000
    N3812    N        0.70061    0.55363    0.71197    1.000
    N3813    N        0.69943    0.54602    0.63968    1.000
    N3814    N        0.62328    0.57644    0.72051    1.000
    Si3815   Si       0.61622    0.54651    0.64143    1.000
    N3816    N        0.54622    0.55436    0.80146    1.000
    N3817    N        0.57233    0.55713    0.86329    1.000
    Si3818   Si       0.52906    0.54333    0.76410    1.000
    Si3819   Si       0.59373    0.59367    0.86230    1.000
    Si3820   Si       0.53581    0.59426    0.81418    1.000
    N3821    N        0.71000    0.59085    0.83869    1.000
    Si3822   Si       0.69866    0.56435    0.80479    1.000
    N3823    N        0.65903    0.55435    0.78223    1.000
    N3824    N        0.73416    0.56676    0.77908    1.000
    Si3825   Si       0.64729    0.58771    0.75654    1.000
    N3826    N        0.57242    0.54552    0.93131    1.000
    Si3827   Si       0.56091    0.58755    0.92750    1.000
    N3828    N        0.51984    0.58682    0.91953    1.000
    Si3829   Si       0.49573    0.55161    0.91457    1.000
    N3830    N        0.60946    0.54452    0.99198    1.000
    N3831    N        0.52098    0.58054    0.99504    1.000
    N3832    N        0.73637    0.55916    0.95383    1.000
    Si3833   Si       0.64048    0.57258    0.98481    1.000
    N3834    N        0.67295    0.54116    0.98453    1.000
    Si3835   Si       0.71795    0.58893    0.88470    1.000
    Si3836   Si       0.71475    0.54809    0.99016    1.000
    Si3837   Si       0.54829    0.61365    0.00110    1.000
    N3838    N        0.49497    0.62882    0.04947    1.000
    N3839    N        0.57047    0.59542    0.03442    1.000
    Si3840   Si       0.53714    0.63326    0.12005    1.000
    N3841    N        0.49949    0.65301    0.11683    1.000
    Si3842   Si       0.61078    0.59554    0.05182    1.000
    N3843    N        0.61906    0.63350    0.06830    1.000
    Si3844   Si       0.71503    0.62162    0.00533    1.000
    Si3845   Si       0.70412    0.62933    0.10422    1.000
    N3846    N        0.68462    0.61670    0.06688    1.000
    Si3847   Si       0.65759    0.64538    0.04936    1.000
    N3848    N        0.68099    0.64751    0.01231    1.000
    N3849    N        0.58022    0.62787    0.22212    1.000
    N3850    N        0.53621    0.63312    0.16425    1.000
    Si3851   Si       0.57558    0.63742    0.18140    1.000
    N3852    N        0.61306    0.62946    0.15931    1.000
    Si3853   Si       0.70552    0.60551    0.17241    1.000
    N3854    N        0.66589    0.60070    0.18980    1.000
    N3855    N        0.71971    0.64736    0.17694    1.000
    N3856    N        0.73846    0.64012    0.24013    1.000
    N3857    N        0.55182    0.62900    0.28284    1.000
    Si3858   Si       0.53755    0.64130    0.32267    1.000
    N3859    N        0.54427    0.60759    0.35185    1.000
    N3860    N        0.49342    0.65108    0.32232    1.000
    Si3861   Si       0.58401    0.65229    0.26020    1.000
    N3862    N        0.61668    0.64535    0.29208    1.000
    Si3863   Si       0.65160    0.61673    0.35761    1.000
    N3864    N        0.67654    0.61582    0.25930    1.000
    Si3865   Si       0.64197    0.61032    0.28445    1.000
    N3866    N        0.69284    0.63539    0.35991    1.000
    Si3867   Si       0.70358    0.64776    0.26463    1.000
    N3868    N        0.62385    0.64779    0.36494    1.000
    N3869    N        0.72764    0.64700    0.30143    1.000
    Si3870   Si       0.58547    0.60790    0.47623    1.000
    N3871    N        0.60243    0.59849    0.43476    1.000
    N3872    N        0.56985    0.64968    0.48324    1.000
    N3873    N        0.49318    0.61964    0.41482    1.000
    Si3874   Si       0.51208    0.59889    0.38199    1.000
    N3875    N        0.65569    0.65027    0.42994    1.000
    N3876    N        0.72805    0.61769    0.41450    1.000
    Si3877   Si       0.64316    0.61089    0.44477    1.000
    N3878    N        0.62709    0.62512    0.48548    1.000
    Si3879   Si       0.70485    0.59821    0.38381    1.000
    N3880    N        0.73827    0.62385    0.47962    1.000
    N3881    N        0.59858    0.63060    0.59780    1.000
    N3882    N        0.53344    0.61049    0.61321    1.000
    Si3883   Si       0.53334    0.60629    0.56793    1.000
    N3884    N        0.55190    0.64415    0.55220    1.000
    N3885    N        0.49586    0.60270    0.54590    1.000
    Si3886   Si       0.64333    0.63614    0.58963    1.000
    Si3887   Si       0.70893    0.62768    0.51188    1.000
    N3888    N        0.67528    0.60697    0.52606    1.000
    Si3889   Si       0.65026    0.65046    0.51228    1.000
    N3890    N        0.72813    0.64968    0.54127    1.000
    Si3891   Si       0.57690    0.60472    0.62360    1.000
    N3892    N        0.58809    0.61237    0.66681    1.000
    N3893    N        0.56616    0.63547    0.73015    1.000
    Si3894   Si       0.56458    0.64129    0.68875    1.000
    N3895    N        0.52312    0.64494    0.67360    1.000
    N3896    N        0.49956    0.60202    0.71911    1.000
    Si3897   Si       0.52275    0.65040    0.63029    1.000
    Si3898   Si       0.70293    0.64984    0.63427    1.000
    Si3899   Si       0.62821    0.60125    0.68583    1.000
    N3900    N        0.65172    0.63475    0.69997    1.000
    N3901    N        0.71579    0.60858    0.62886    1.000
    N3902    N        0.51543    0.62318    0.78508    1.000
    N3903    N        0.57445    0.60912    0.82654    1.000
    Si3904   Si       0.49890    0.64144    0.82135    1.000
    Si3905   Si       0.60046    0.64898    0.75355    1.000
    N3906    N        0.50192    0.60175    0.84054    1.000
    Si3907   Si       0.53619    0.65211    0.75882    1.000
    Si3908   Si       0.61275    0.62894    0.81447    1.000
    N3909    N        0.62149    0.61670    0.77245    1.000
    N3910    N        0.63407    0.60836    0.84806    1.000
    N3911    N        0.72977    0.64339    0.79131    1.000
    Si3912   Si       0.72861    0.62776    0.83048    1.000
    Si3913   Si       0.71219    0.64105    0.75213    1.000
    Si3914   Si       0.66455    0.63245    0.86908    1.000
    N3915    N        0.70548    0.65283    0.85743    1.000
    N3916    N        0.68904    0.60542    0.75401    1.000
    N3917    N        0.58049    0.61450    0.89892    1.000
    N3918    N        0.56981    0.61205    0.96339    1.000
    Si3919   Si       0.49959    0.62711    0.91883    1.000
    Si3920   Si       0.60437    0.63763    0.95594    1.000
    N3921    N        0.71279    0.61513    0.96339    1.000
    N3922    N        0.63779    0.60685    0.95623    1.000
    Si3923   Si       0.67609    0.62464    0.94223    1.000
    N3924    N        0.67968    0.60687    0.90021    1.000
    N3925    N        0.58686    0.69193    0.05267    1.000
    Si3926   Si       0.57834    0.68043    0.01263    1.000
    Si3927   Si       0.50495    0.66507    0.03075    1.000
    Si3928   Si       0.60005    0.66729    0.08559    1.000
    N3929    N        0.50362    0.70377    0.05007    1.000
    N3930    N        0.56498    0.66079    0.10985    1.000
    N3931    N        0.54257    0.65614    0.01025    1.000
    N3932    N        0.65802    0.68821    0.06223    1.000
    Si3933   Si       0.65901    0.69480    0.10588    1.000
    N3934    N        0.61999    0.68637    0.11951    1.000
    N3935    N        0.49371    0.67868    0.20510    1.000
    Si3936   Si       0.51991    0.69937    0.23503    1.000
    Si3937   Si       0.56619    0.69660    0.13682    1.000
    N3938    N        0.52555    0.69964    0.15438    1.000
    Si3939   Si       0.58728    0.70032    0.21571    1.000
    N3940    N        0.58515    0.68257    0.17463    1.000
    Si3941   Si       0.50067    0.66347    0.16282    1.000
    N3942    N        0.55886    0.68779    0.24440    1.000
    Si3943   Si       0.62753    0.66989    0.16050    1.000
    N3944    N        0.66204    0.69237    0.18041    1.000
    N3945    N        0.62106    0.67958    0.23550    1.000
    N3946    N        0.72833    0.70295    0.13614    1.000
    Si3947   Si       0.69928    0.68003    0.15668    1.000
    N3948    N        0.67779    0.65891    0.12491    1.000
    Si3949   Si       0.65945    0.69614    0.22590    1.000
    N3950    N        0.56319    0.67238    0.33663    1.000
    Si3951   Si       0.60619    0.66816    0.32937    1.000
    Si3952   Si       0.54191    0.70607    0.35384    1.000
    N3953    N        0.70250    0.70138    0.32648    1.000
    N3954    N        0.62834    0.70575    0.32530    1.000
    Si3955   Si       0.72072    0.66159    0.33959    1.000
    N3956    N        0.69189    0.68739    0.25397    1.000
    Si3957   Si       0.66569    0.71281    0.34547    1.000
    Si3958   Si       0.71454    0.71140    0.28554    1.000
    N3959    N        0.50779    0.69002    0.37717    1.000
    N3960    N        0.59888    0.68671    0.42499    1.000
    Si3961   Si       0.59693    0.68082    0.46755    1.000
    N3962    N        0.52388    0.70641    0.45505    1.000
    Si3963   Si       0.50525    0.70807    0.41619    1.000
    N3964    N        0.65817    0.70278    0.38727    1.000
    Si3965   Si       0.63236    0.67035    0.40005    1.000
    Si3966   Si       0.67898    0.67885    0.45178    1.000
    N3967    N        0.71724    0.68627    0.43311    1.000
    Si3968   Si       0.57587    0.66588    0.58238    1.000
    Si3969   Si       0.54271    0.66372    0.51413    1.000
    N3970    N        0.59389    0.70438    0.56741    1.000
    N3971    N        0.54419    0.70733    0.52202    1.000
    N3972    N        0.50369    0.65654    0.49724    1.000
    N3973    N        0.48811    0.66712    0.61345    1.000
    N3974    N        0.55685    0.67329    0.62142    1.000
    Si3975   Si       0.71340    0.68838    0.52246    1.000
    Si3976   Si       0.62800    0.69908    0.54157    1.000
    N3977    N        0.72398    0.67022    0.60313    1.000
    N3978    N        0.64506    0.66180    0.55419    1.000
    N3979    N        0.62687    0.68673    0.49977    1.000
    N3980    N        0.68786    0.66488    0.49532    1.000
    N3981    N        0.61287    0.71402    0.63100    1.000
    Si3982   Si       0.57701    0.70054    0.64829    1.000
    N3983    N        0.58606    0.68002    0.68510    1.000
    N3984    N        0.51111    0.68514    0.74619    1.000
    Si3985   Si       0.61925    0.70068    0.70410    1.000
    Si3986   Si       0.67979    0.66801    0.70103    1.000
    N3987    N        0.65595    0.69711    0.68223    1.000
    Si3988   Si       0.64968    0.69478    0.63847    1.000
    N3989    N        0.66015    0.65625    0.62458    1.000
    N3990    N        0.71384    0.65972    0.67586    1.000
    N3991    N        0.69660    0.67963    0.73908    1.000
    N3992    N        0.52298    0.67313    0.83586    1.000
    Si3993   Si       0.56243    0.69177    0.81750    1.000
    N3994    N        0.56994    0.66255    0.78585    1.000
    N3995    N        0.57909    0.67957    0.86085    1.000
    Si3996   Si       0.61994    0.69188    0.85257    1.000
    N3997    N        0.63467    0.66768    0.81622    1.000
    Si3998   Si       0.63256    0.70262    0.78715    1.000
    N3999    N        0.62185    0.68642    0.74540    1.000
    Si4000   Si       0.72816    0.68499    0.87290    1.000
    Si4001   Si       0.56990    0.65703    0.89762    1.000
    Si4002   Si       0.51844    0.69337    0.87398    1.000
    Si4003   Si       0.60767    0.70165    0.95930    1.000
    N4004    N        0.59196    0.67286    0.92984    1.000
    N4005    N        0.52761    0.66087    0.90320    1.000
    N4006    N        0.61189    0.66418    0.98936    1.000
    Si4007   Si       0.68067    0.68343    0.98731    1.000
    Si4008   Si       0.66598    0.69570    0.91166    1.000
    N4009    N        0.67139    0.66775    0.94599    1.000
    N4010    N        0.70303    0.71177    0.89573    1.000
    N4011    N        0.72427    0.69146    0.98275    1.000
    N4012    N        0.64659    0.67102    0.88275    1.000
    Si4013   Si       0.58325    0.73153    0.06941    1.000
    N4014    N        0.55226    0.75218    0.04515    1.000
    Si4015   Si       0.51177    0.74748    0.06309    1.000
    N4016    N        0.56926    0.73004    0.10988    1.000
    N4017    N        0.51099    0.76553    0.10201    1.000
    Si4018   Si       0.55436    0.74903    0.00057    1.000
    N4019    N        0.62254    0.75257    0.06550    1.000
    N4020    N        0.68749    0.75012    0.06022    1.000
    Si4021   Si       0.65399    0.72846    0.04476    1.000
    N4022    N        0.66105    0.72040    0.00122    1.000
    Si4023   Si       0.68117    0.76530    0.10094    1.000
    Si4024   Si       0.54971    0.76742    0.12412    1.000
    N4025    N        0.58822    0.74255    0.21056    1.000
    N4026    N        0.51739    0.74065    0.21963    1.000
    Si4027   Si       0.51083    0.73328    0.17567    1.000
    N4028    N        0.54275    0.76432    0.16559    1.000
    Si4029   Si       0.55336    0.77016    0.20813    1.000
    N4030    N        0.66875    0.73108    0.12523    1.000
    Si4031   Si       0.62248    0.76633    0.21059    1.000
    Si4032   Si       0.66522    0.73762    0.17038    1.000
    N4033    N        0.65792    0.74052    0.22112    1.000
    Si4034   Si       0.73320    0.74441    0.14281    1.000
    N4035    N        0.70475    0.75464    0.17525    1.000
    N4036    N        0.52661    0.73122    0.32104    1.000
    Si4037   Si       0.54466    0.76707    0.30562    1.000
    N4038    N        0.58611    0.76851    0.31958    1.000
    Si4039   Si       0.62359    0.74672    0.31717    1.000
    N4040    N        0.70291    0.75189    0.27939    1.000
    N4041    N        0.65584    0.75716    0.34546    1.000
    Si4042   Si       0.67194    0.76595    0.25424    1.000
    N4043    N        0.63474    0.76537    0.27786    1.000
    N4044    N        0.52641    0.76441    0.49082    1.000
    N4045    N        0.55966    0.72942    0.38539    1.000
    Si4046   Si       0.54749    0.72894    0.48389    1.000
    N4047    N        0.49825    0.75488    0.40450    1.000
    N4048    N        0.58909    0.72540    0.47016    1.000
    Si4049   Si       0.58403    0.72843    0.42228    1.000
    Si4050   Si       0.53858    0.76540    0.39330    1.000
    N4051    N        0.55952    0.77058    0.43157    1.000
    Si4052   Si       0.63380    0.73432    0.48402    1.000
    N4053    N        0.66168    0.71717    0.45269    1.000
    N4054    N        0.68954    0.76614    0.40254    1.000
    Si4055   Si       0.65786    0.73652    0.41437    1.000
    N4056    N        0.61895    0.75242    0.41334    1.000
    N4057    N        0.50668    0.75181    0.55788    1.000
    Si4058   Si       0.59673    0.73671    0.59736    1.000
    Si4059   Si       0.54773    0.73435    0.55767    1.000
    N4060    N        0.55320    0.73799    0.60011    1.000
    N4061    N        0.57181    0.77052    0.54432    1.000
    N4062    N        0.64224    0.73866    0.52860    1.000
    Si4063   Si       0.67777    0.75593    0.54538    1.000
    N4064    N        0.70219    0.71951    0.55093    1.000
    Si4065   Si       0.65586    0.76351    0.61720    1.000
    N4066    N        0.67690    0.72205    0.61763    1.000
    Si4067   Si       0.71199    0.71111    0.59353    1.000
    N4068    N        0.61401    0.77559    0.60876    1.000
    Si4069   Si       0.52844    0.74947    0.63364    1.000
    N4070    N        0.54004    0.75041    0.73542    1.000
    N4071    N        0.55204    0.73231    0.66650    1.000
    Si4072   Si       0.56899    0.75253    0.69993    1.000
    N4073    N        0.61098    0.74268    0.70343    1.000
    N4074    N        0.68256    0.75537    0.72199    1.000
    Si4075   Si       0.64795    0.76715    0.69858    1.000
    Si4076   Si       0.53254    0.75413    0.83001    1.000
    Si4077   Si       0.60606    0.75334    0.83104    1.000
    Si4078   Si       0.51609    0.72600    0.76253    1.000
    N4079    N        0.53595    0.72460    0.79935    1.000
    N4080    N        0.53497    0.73482    0.86952    1.000
    N4081    N        0.59953    0.71608    0.81141    1.000
    N4082    N        0.66658    0.72954    0.78431    1.000
    N4083    N        0.72915    0.73827    0.76971    1.000
    N4084    N        0.62475    0.73345    0.86535    1.000
    Si4085   Si       0.69338    0.72212    0.74965    1.000
    N4086    N        0.57900    0.76209    0.92049    1.000
    N4087    N        0.50242    0.75774    0.92372    1.000
    Si4088   Si       0.53879    0.76520    0.90137    1.000
    N4089    N        0.51711    0.73658    0.98696    1.000
    N4090    N        0.58059    0.71730    0.98763    1.000
    Si4091   Si       0.71989    0.74654    0.91665    1.000
    Si4092   Si       0.61926    0.75153    0.90434    1.000
    N4093    N        0.63444    0.71910    0.93075    1.000
    N4094    N        0.68675    0.75950    0.94175    1.000
    Si4095   Si       0.66147    0.75555    0.97661    1.000
    N4096    N        0.58097    0.79688    0.11104    1.000
    N4097    N        0.51804    0.82843    0.02326    1.000
    N4098    N        0.61740    0.81991    0.05541    1.000
    Si4099   Si       0.61647    0.78992    0.08626    1.000
    N4100    N        0.65145    0.79454    0.11224    1.000
    N4101    N        0.72810    0.80511    0.05558    1.000
    Si4102   Si       0.71162    0.77118    0.03153    1.000
    N4103    N        0.68386    0.78583    0.00116    1.000
    N4104    N        0.72440    0.77403    0.11321    1.000
    N4105    N        0.53961    0.81187    0.21210    1.000
    N4106    N        0.61044    0.80232    0.23234    1.000
    Si4107   Si       0.64634    0.80742    0.15370    1.000
    N4108    N        0.68518    0.82409    0.16668    1.000
    Si4109   Si       0.70532    0.79424    0.19083    1.000
    N4110    N        0.69262    0.79884    0.23340    1.000
    N4111    N        0.63508    0.77042    0.17104    1.000
    Si4112   Si       0.59860    0.79171    0.27473    1.000
    N4113    N        0.51475    0.79741    0.31528    1.000
    Si4114   Si       0.52931    0.81269    0.25485    1.000
    N4115    N        0.55504    0.77746    0.26446    1.000
    Si4116   Si       0.52392    0.83136    0.34571    1.000
    Si4117   Si       0.68192    0.78452    0.36574    1.000
    Si4118   Si       0.72042    0.78690    0.29825    1.000
    N4119    N        0.71992    0.78721    0.34305    1.000
    N4120    N        0.67044    0.82505    0.36414    1.000
    N4121    N        0.69772    0.82448    0.29382    1.000
    N4122    N        0.54082    0.80329    0.37392    1.000
    N4123    N        0.57706    0.81592    0.47044    1.000
    Si4124   Si       0.60068    0.78838    0.43966    1.000
    Si4125   Si       0.53915    0.79528    0.46160    1.000
    N4126    N        0.50019    0.81137    0.44915    1.000
    N4127    N        0.60479    0.81847    0.40796    1.000
    Si4128   Si       0.57432    0.83259    0.37918    1.000
    N4129    N        0.63506    0.77546    0.46894    1.000
    Si4130   Si       0.67030    0.80010    0.47654    1.000
    Si4131   Si       0.72410    0.77965    0.42334    1.000
    N4132    N        0.70477    0.81019    0.45286    1.000
    N4133    N        0.52583    0.81673    0.53561    1.000
    Si4134   Si       0.56682    0.81492    0.54684    1.000
    Si4135   Si       0.60219    0.81788    0.61217    1.000
    Si4136   Si       0.50672    0.78070    0.52536    1.000
    N4137    N        0.68765    0.78743    0.51633    1.000
    N4138    N        0.67631    0.78104    0.58475    1.000
    Si4139   Si       0.71046    0.82270    0.52531    1.000
    Si4140   Si       0.67578    0.82511    0.59372    1.000
    N4141    N        0.58979    0.83023    0.65110    1.000
    N4142    N        0.52760    0.78996    0.63909    1.000
    Si4143   Si       0.53049    0.79303    0.72608    1.000
    N4144    N        0.56359    0.79804    0.69882    1.000
    Si4145   Si       0.54886    0.82009    0.66172    1.000
    Si4146   Si       0.59947    0.82463    0.69448    1.000
    N4147    N        0.63189    0.80403    0.71173    1.000
    N4148    N        0.70109    0.82154    0.70011    1.000
    N4149    N        0.73560    0.77486    0.66101    1.000
    Si4150   Si       0.70249    0.79338    0.73285    1.000
    Si4151   Si       0.70006    0.80097    0.66215    1.000
    N4152    N        0.66390    0.77556    0.65860    1.000
    Si4153   Si       0.56306    0.81298    0.85329    1.000
    N4154    N        0.54289    0.81550    0.76023    1.000
    Si4155   Si       0.52182    0.82018    0.79727    1.000
    N4156    N        0.50532    0.78276    0.81311    1.000
    N4157    N        0.60317    0.82767    0.85760    1.000
    N4158    N        0.57084    0.77705    0.83160    1.000
    N4159    N        0.60911    0.83275    0.77947    1.000
    Si4160   Si       0.62374    0.82167    0.81875    1.000
    N4161    N        0.70705    0.79424    0.82162    1.000
    N4162    N        0.67509    0.80576    0.76647    1.000
    Si4163   Si       0.72478    0.80961    0.85826    1.000
    N4164    N        0.63593    0.77999    0.81586    1.000
    Si4165   Si       0.63999    0.82742    0.74920    1.000
    Si4166   Si       0.69569    0.83008    0.79913    1.000
    Si4167   Si       0.67317    0.77191    0.79792    1.000
    N4168    N        0.53788    0.80676    0.88672    1.000
    Si4169   Si       0.59059    0.79179    0.95200    1.000
    N4170    N        0.56004    0.79123    0.98364    1.000
    N4171    N        0.60082    0.83014    0.93516    1.000
    Si4172   Si       0.54065    0.83158    0.98568    1.000
    N4173    N        0.68598    0.82860    0.93981    1.000
    N4174    N        0.64059    0.78973    0.90217    1.000
    Si4175   Si       0.62069    0.82922    0.89645    1.000
    Si4176   Si       0.68195    0.79396    0.91603    1.000
    N4177    N        0.71346    0.78382    0.89069    1.000
    Si4178   Si       0.68057    0.82553    0.98187    1.000
    N4179    N        0.62435    0.77533    0.97128    1.000
    Si4180   Si       0.52879    0.85726    0.05445    1.000
    N4181    N        0.55971    0.85914    0.08313    1.000
    Si4182   Si       0.49174    0.84588    0.12226    1.000
    N4183    N        0.49291    0.85313    0.07960    1.000
    Si4184   Si       0.56553    0.83685    0.11915    1.000
    N4185    N        0.53405    0.89164    0.03286    1.000
    Si4186   Si       0.63753    0.85255    0.03651    1.000
    N4187    N        0.67725    0.85626    0.05539    1.000
    Si4188   Si       0.71590    0.84442    0.04172    1.000
    Si4189   Si       0.67754    0.88188    0.09240    1.000
    N4190    N        0.71505    0.87104    0.11604    1.000
    N4191    N        0.71428    0.84649    0.99771    1.000
    N4192    N        0.51962    0.88103    0.19241    1.000
    N4193    N        0.58961    0.87354    0.23454    1.000
    N4194    N        0.58255    0.87477    0.13491    1.000
    Si4195   Si       0.52281    0.83955    0.18442    1.000
    N4196    N        0.52899    0.83410    0.14192    1.000
    Si4197   Si       0.61951    0.87412    0.15560    1.000
    N4198    N        0.65694    0.85520    0.23843    1.000
    N4199    N        0.62156    0.83699    0.17656    1.000
    N4200    N        0.65271    0.87198    0.12674    1.000
    N4201    N        0.72803    0.86238    0.23981    1.000
    Si4202   Si       0.68975    0.86569    0.15034    1.000
    Si4203   Si       0.61955    0.84228    0.22092    1.000
    Si4204   Si       0.57222    0.87282    0.27413    1.000
    N4205    N        0.53771    0.84792    0.27743    1.000
    N4206    N        0.60582    0.85167    0.35481    1.000
    Si4207   Si       0.50658    0.87867    0.28942    1.000
    N4208    N        0.49240    0.85755    0.32670    1.000
    N4209    N        0.54756    0.86478    0.36749    1.000
    N4210    N        0.60192    0.83276    0.28978    1.000
    Si4211   Si       0.57952    0.89401    0.34881    1.000
    Si4212   Si       0.69408    0.83764    0.25253    1.000
    Si4213   Si       0.62217    0.86063    0.31600    1.000
    N4214    N        0.72871    0.85665    0.34500    1.000
    N4215    N        0.65991    0.87801    0.32758    1.000
    Si4216   Si       0.69062    0.84726    0.32993    1.000
    Si4217   Si       0.60474    0.84623    0.48654    1.000
    N4218    N        0.52559    0.87266    0.43468    1.000
    N4219    N        0.59317    0.88254    0.46701    1.000
    Si4220   Si       0.49422    0.85342    0.45448    1.000
    N4221    N        0.49384    0.86777    0.49558    1.000
    Si4222   Si       0.63630    0.84116    0.38552    1.000
    Si4223   Si       0.73059    0.84029    0.43393    1.000
    N4224    N        0.64812    0.83862    0.47862    1.000
    Si4225   Si       0.68045    0.86639    0.46807    1.000
    N4226    N        0.64447    0.87487    0.40961    1.000
    N4227    N        0.70610    0.87663    0.43321    1.000
    Si4228   Si       0.55406    0.87217    0.59486    1.000
    N4229    N        0.51926    0.87541    0.56741    1.000
    N4230    N        0.59658    0.84432    0.52940    1.000
    Si4231   Si       0.49940    0.85137    0.53661    1.000
    N4232    N        0.56789    0.82891    0.58902    1.000
    Si4233   Si       0.61939    0.86565    0.56132    1.000
    Si4234   Si       0.69033    0.88105    0.54085    1.000
    N4235    N        0.69158    0.84383    0.55954    1.000
    N4236    N        0.70745    0.86261    0.50409    1.000
    N4237    N        0.63498    0.83832    0.59187    1.000
    N4238    N        0.52162    0.84709    0.67906    1.000
    N4239    N        0.58931    0.85715    0.72144    1.000
    Si4240   Si       0.52511    0.88956    0.67150    1.000
    N4241    N        0.65693    0.86552    0.73478    1.000
    Si4242   Si       0.71716    0.87052    0.63849    1.000
    Si4243   Si       0.69016    0.86444    0.70407    1.000
    N4244    N        0.71902    0.88826    0.72605    1.000
    N4245    N        0.67996    0.88377    0.66751    1.000
    N4246    N        0.69655    0.83019    0.63110    1.000
    Si4247   Si       0.57342    0.84731    0.76090    1.000
    N4248    N        0.54510    0.84247    0.82708    1.000
    N4249    N        0.55402    0.88475    0.77120    1.000
    Si4250   Si       0.55227    0.88584    0.84403    1.000
    Si4251   Si       0.51130    0.88676    0.78261    1.000
    N4252    N        0.71629    0.86772    0.79507    1.000
    Si4253   Si       0.67283    0.86579    0.85541    1.000
    N4254    N        0.66087    0.84143    0.82287    1.000
    Si4255   Si       0.51926    0.84279    0.90489    1.000
    N4256    N        0.54125    0.87778    0.88601    1.000
    N4257    N        0.52139    0.84190    0.94945    1.000
    N4258    N        0.57468    0.85929    0.98873    1.000
    Si4259   Si       0.61146    0.85763    0.96669    1.000
    N4260    N        0.70764    0.84910    0.87624    1.000
    N4261    N        0.64437    0.84656    0.99387    1.000
    Si4262   Si       0.70330    0.86436    0.91742    1.000
    N4263    N        0.64589    0.86375    0.89117    1.000
    N4264    N        0.59269    0.93044    0.09393    1.000
    Si4265   Si       0.52335    0.92738    0.01101    1.000
    Si4266   Si       0.56483    0.89918    0.10473    1.000
    N4267    N        0.52907    0.92018    0.11477    1.000
    N4268    N        0.56423    0.93483    0.00156    1.000
    Si4269   Si       0.49620    0.94622    0.12172    1.000
    N4270    N        0.61267    0.88865    0.04017    1.000
    Si4271   Si       0.57418    0.89356    0.01566    1.000
    N4272    N        0.66517    0.92083    0.07594    1.000
    Si4273   Si       0.62311    0.92239    0.06484    1.000
    Si4274   Si       0.72645    0.94033    0.00578    1.000
    N4275    N        0.72639    0.94486    0.05052    1.000
    N4276    N        0.56657    0.92992    0.20737    1.000
    Si4277   Si       0.53594    0.90670    0.22428    1.000
    Si4278   Si       0.60314    0.91197    0.22103    1.000
    N4279    N        0.49901    0.93221    0.23252    1.000
    N4280    N        0.62728    0.90335    0.18661    1.000
    Si4281   Si       0.65893    0.93170    0.17670    1.000
    N4282    N        0.72689    0.92885    0.22655    1.000
    Si4283   Si       0.72805    0.91635    0.18544    1.000
    N4284    N        0.69043    0.90471    0.17022    1.000
    N4285    N        0.54169    0.90704    0.26859    1.000
    N4286    N        0.54891    0.92530    0.35053    1.000
    Si4287   Si       0.50588    0.92931    0.34592    1.000
    Si4288   Si       0.51528    0.94066    0.27402    1.000
    Si4289   Si       0.61133    0.93578    0.29865    1.000
    N4290    N        0.61224    0.91759    0.36482    1.000
    N4291    N        0.59554    0.89450    0.30720    1.000
    N4292    N        0.49051    0.92080    0.30471    1.000
    N4293    N        0.61660    0.93583    0.25412    1.000
    Si4294   Si       0.65413    0.91752    0.34877    1.000
    N4295    N        0.65067    0.94819    0.31749    1.000
    N4296    N        0.73564    0.91207    0.29695    1.000
    N4297    N        0.49251    0.90638    0.38145    1.000
    Si4298   Si       0.59482    0.94096    0.39831    1.000
    N4299    N        0.56370    0.91735    0.41580    1.000
    N4300    N        0.53681    0.91995    0.48968    1.000
    Si4301   Si       0.55372    0.89743    0.45539    1.000
    Si4302   Si       0.53209    0.89378    0.39842    1.000
    N4303    N        0.73356    0.93899    0.48049    1.000
    Si4304   Si       0.67623    0.90240    0.41542    1.000
    N4305    N        0.66393    0.90662    0.46569    1.000
    Si4306   Si       0.62150    0.91509    0.46333    1.000
    N4307    N        0.68408    0.92631    0.37963    1.000
    Si4308   Si       0.69005    0.94057    0.47596    1.000
    N4309    N        0.62439    0.94352    0.42808    1.000
    Si4310   Si       0.72330    0.94564    0.37475    1.000
    N4311    N        0.52114    0.94221    0.58818    1.000
    N4312    N        0.60596    0.93724    0.49850    1.000
    Si4313   Si       0.49188    0.90930    0.57893    1.000
    Si4314   Si       0.61154    0.92746    0.60070    1.000
    N4315    N        0.59223    0.89047    0.58447    1.000
    Si4316   Si       0.49600    0.91153    0.49896    1.000
    Si4317   Si       0.56586    0.94718    0.50865    1.000
    Si4318   Si       0.68585    0.94578    0.61637    1.000
    Si4319   Si       0.63727    0.93286    0.52906    1.000
    N4320    N        0.71050    0.91498    0.55919    1.000
    N4321    N        0.64904    0.89241    0.53993    1.000
    Si4322   Si       0.54179    0.93847    0.62574    1.000
    Si4323   Si       0.58614    0.90115    0.71643    1.000
    N4324    N        0.54856    0.91122    0.69980    1.000
    N4325    N        0.53893    0.89441    0.63093    1.000
    N4326    N        0.61272    0.91195    0.68339    1.000
    N4327    N        0.58286    0.94695    0.62885    1.000
    N4328    N        0.64717    0.93117    0.62627    1.000
    N4329    N        0.67027    0.93162    0.71086    1.000
    Si4330   Si       0.73317    0.94787    0.65907    1.000
    Si4331   Si       0.65444    0.92136    0.66920    1.000
    Si4332   Si       0.71353    0.93149    0.73429    1.000
    Si4333   Si       0.64993    0.90688    0.74108    1.000
    N4334    N        0.72007    0.91935    0.62646    1.000
    Si4335   Si       0.57964    0.91781    0.78627    1.000
    N4336    N        0.51962    0.90633    0.82195    1.000
    N4337    N        0.59152    0.89965    0.82572    1.000
    N4338    N        0.55082    0.94049    0.86799    1.000
    N4339    N        0.60680    0.91521    0.75228    1.000
    N4340    N        0.49341    0.90748    0.74921    1.000
    Si4341   Si       0.62816    0.92005    0.83845    1.000
    N4342    N        0.67464    0.92635    0.77214    1.000
    Si4343   Si       0.70307    0.91093    0.80355    1.000
    N4344    N        0.67031    0.90417    0.83692    1.000
    N4345    N        0.73139    0.92992    0.82858    1.000
    N4346    N        0.73891    0.92228    0.76945    1.000
    Si4347   Si       0.49033    0.93831    0.94244    1.000
    Si4348   Si       0.52769    0.91961    0.89711    1.000
    N4349    N        0.49232    0.91910    0.98213    1.000
    N4350    N        0.53172    0.94725    0.93026    1.000
    N4351    N        0.61604    0.89605    0.94600    1.000
    Si4352   Si       0.68730    0.93778    0.94659    1.000
    N4353    N        0.68598    0.94449    0.98888    1.000
    Si4354   Si       0.64074    0.90182    0.91328    1.000
    N4355    N        0.62127    0.92574    0.88134    1.000
    N4356    N        0.68218    0.90066    0.92752    1.000
    N4357    N        0.56288    0.99858    0.02707    1.000
    Si4358   Si       0.58870    0.96976    0.01017    1.000
    N4359    N        0.50765    0.98746    0.11287    1.000
    Si4360   Si       0.53455    0.99220    0.05922    1.000
    N4361    N        0.50960    0.95506    0.04353    1.000
    N4362    N        0.62623    0.99243    0.09975    1.000
    N4363    N        0.67693    0.98680    0.04041    1.000
    N4364    N        0.69455    0.97153    0.10720    1.000
    Si4365   Si       0.65375    0.96969    0.00929    1.000
    Si4366   Si       0.68883    0.95481    0.06820    1.000
    N4367    N        0.62109    0.95386    0.03531    1.000
    Si4368   Si       0.60404    0.96129    0.12231    1.000
    Si4369   Si       0.54456    0.00467    0.12777    1.000
    N4370    N        0.53052    0.98966    0.19853    1.000
    N4371    N        0.57060    0.97615    0.14579    1.000
    Si4372   Si       0.56908    0.97109    0.18886    1.000
    N4373    N        0.60032    0.99056    0.20947    1.000
    Si4374   Si       0.49562    0.96610    0.20435    1.000
    N4375    N        0.64009    0.95409    0.14588    1.000
    N4376    N        0.72441    0.99765    0.21166    1.000
    Si4377   Si       0.73230    0.97520    0.12474    1.000
    Si4378   Si       0.63209    0.97251    0.23501    1.000
    Si4379   Si       0.70203    0.96375    0.22923    1.000
    N4380    N        0.66429    0.95846    0.21019    1.000
    Si4381   Si       0.66065    0.98666    0.12572    1.000
    N4382    N        0.51073    0.97345    0.35431    1.000
    Si4383   Si       0.55498    0.97297    0.34376    1.000
    N4384    N        0.58307    0.96676    0.30923    1.000
    N4385    N        0.51645    0.98228    0.27904    1.000
    Si4386   Si       0.59245    0.00838    0.30451    1.000
    N4387    N        0.72436    0.96919    0.33899    1.000
    N4388    N        0.64074    0.99964    0.26847    1.000
    N4389    N        0.69984    0.96586    0.27272    1.000
    Si4390   Si       0.66930    0.98186    0.29683    1.000
    Si4391   Si       0.73254    0.95510    0.29869    1.000
    N4392    N        0.58294    0.97759    0.37853    1.000
    N4393    N        0.64376    0.00969    0.40102    1.000
    Si4394   Si       0.64855    0.98077    0.43298    1.000
    Si4395   Si       0.73393    0.96950    0.44954    1.000
    N4396    N        0.63645    0.00146    0.46881    1.000
    N4397    N        0.68894    0.96915    0.44502    1.000
    Si4398   Si       0.52988    0.98001    0.56981    1.000
    N4399    N        0.56223    0.97473    0.54028    1.000
    Si4400   Si       0.60296    0.98784    0.55227    1.000
    N4401    N        0.49232    0.99310    0.55289    1.000
    N4402    N        0.53591    0.00748    0.60539    1.000
    Si4403   Si       0.69850    0.95565    0.55086    1.000
    N4404    N        0.69071    0.97586    0.58716    1.000
    N4405    N        0.67275    0.95582    0.51339    1.000
    N4406    N        0.73330    0.97774    0.54011    1.000
    Si4407   Si       0.66409    0.99745    0.50173    1.000
    N4408    N        0.61991    0.95165    0.56574    1.000
    Si4409   Si       0.60005    0.95248    0.66787    1.000
    N4410    N        0.51733    0.96073    0.65496    1.000
    N4411    N        0.56963    0.97186    0.69161    1.000
    N4412    N        0.50081    0.96820    0.72102    1.000
    Si4413   Si       0.53181    0.95348    0.69536    1.000
    Si4414   Si       0.51507    0.00409    0.64383    1.000
    N4415    N        0.70454    0.97650    0.73907    1.000
    N4416    N        0.63766    0.97197    0.67741    1.000
    N4417    N        0.69608    0.96933    0.65497    1.000
    Si4418   Si       0.66460    0.97638    0.71587    1.000
    Si4419   Si       0.66646    0.99874    0.65864    1.000
    Si4420   Si       0.59322    0.98431    0.81364    1.000
    N4421    N        0.59404    0.99204    0.85611    1.000
    N4422    N        0.50193    0.98171    0.83522    1.000
    N4423    N        0.56177    0.95662    0.80086    1.000
    Si4424   Si       0.52871    0.94947    0.82920    1.000
    Si4425   Si       0.65755    0.96578    0.78430    1.000
    N4426    N        0.69065    0.98564    0.80255    1.000
    Si4427   Si       0.72101    0.99648    0.77342    1.000
    N4428    N        0.62679    0.95555    0.81066    1.000
    N4429    N        0.64025    0.98691    0.74895    1.000
    N4430    N        0.58785    0.97500    0.92269    1.000
    Si4431   Si       0.54818    0.98759    0.93002    1.000
    Si4432   Si       0.58981    0.95646    0.88308    1.000
    Si4433   Si       0.69497    0.98768    0.91045    1.000
    Si4434   Si       0.62594    0.98883    0.94093    1.000
    N4435    N        0.65949    0.96770    0.92573    1.000
    N4436    N        0.62173    0.98161    0.98288    1.000
    N4437    N        0.72059    0.95856    0.92946    1.000
    N4438    N        0.69095    0.00702    0.87155    1.000
    Si4439   Si       0.81050    0.02872    0.05642    1.000
    N4440    N        0.80917    0.03528    0.09984    1.000
    N4441    N        0.77027    0.01647    0.04512    1.000
    Si4442   Si       0.74525    0.04987    0.03065    1.000
    Si4443   Si       0.84735    0.05061    0.11843    1.000
    N4444    N        0.83132    0.06335    0.04196    1.000
    N4445    N        0.89749    0.03826    0.05234    1.000
    Si4446   Si       0.93259    0.03726    0.02725    1.000
    N4447    N        0.96650    0.02244    0.05180    1.000
    N4448    N        0.87407    0.01489    0.11099    1.000
    N4449    N        0.98396    0.03938    0.11817    1.000
    Si4450   Si       0.98696    0.04967    0.07709    1.000
    Si4451   Si       0.77886    0.01295    0.12156    1.000
    N4452    N        0.84136    0.05216    0.16060    1.000
    N4453    N        0.82821    0.03965    0.22098    1.000
    Si4454   Si       0.82794    0.01697    0.18267    1.000
    Si4455   Si       0.96220    0.00791    0.14297    1.000
    Si4456   Si       0.93658    0.01109    0.20624    1.000
    N4457    N        0.94953    0.04232    0.17369    1.000
    N4458    N        0.94962    0.04282    0.23500    1.000
    N4459    N        0.83873    0.03508    0.35174    1.000
    N4460    N        0.75197    0.04437    0.33101    1.000
    Si4461   Si       0.84229    0.04221    0.26356    1.000
    N4462    N        0.75984    0.03531    0.25570    1.000
    Si4463   Si       0.76749    0.05951    0.29082    1.000
    N4464    N        0.81291    0.06081    0.29277    1.000
    N4465    N        0.87971    0.03262    0.29479    1.000
    N4466    N        0.97184    0.03034    0.35354    1.000
    Si4467   Si       0.95940    0.04935    0.27534    1.000
    N4468    N        0.94414    0.01096    0.29209    1.000
    Si4469   Si       0.86950    0.00679    0.32841    1.000
    Si4470   Si       0.78635    0.02205    0.47566    1.000
    N4471    N        0.76834    0.05340    0.40051    1.000
    N4472    N        0.80522    0.05943    0.45981    1.000
    Si4473   Si       0.86280    0.01087    0.45139    1.000
    N4474    N        0.94164    0.04727    0.46735    1.000
    Si4475   Si       0.97689    0.05579    0.49357    1.000
    Si4476   Si       0.95315    0.04534    0.39134    1.000
    N4477    N        0.87468    0.05335    0.45690    1.000
    N4478    N        0.93817    0.00977    0.41191    1.000
    N4479    N        0.77175    0.02820    0.51494    1.000
    Si4480   Si       0.79677    0.03074    0.54999    1.000
    N4481    N        0.81206    0.06315    0.57498    1.000
    N4482    N        0.85979    0.06303    0.52099    1.000
    N4483    N        0.86493    0.02653    0.58845    1.000
    Si4484   Si       0.87092    0.02659    0.54319    1.000
    N4485    N        0.93201    0.03296    0.59326    1.000
    N4486    N        0.97429    0.03733    0.53176    1.000
    Si4487   Si       0.89669    0.01851    0.61636    1.000
    Si4488   Si       0.94318    0.01462    0.55351    1.000
    N4489    N        0.75288    0.04124    0.69784    1.000
    N4490    N        0.81592    0.01663    0.63090    1.000
    Si4491   Si       0.79141    0.02525    0.71126    1.000
    Si4492   Si       0.81965    0.05607    0.64913    1.000
    N4493    N        0.82329    0.04911    0.69200    1.000
    Si4494   Si       0.74488    0.05800    0.65754    1.000
    Si4495   Si       0.74321    0.06270    0.73893    1.000
    Si4496   Si       0.93940    0.00926    0.74519    1.000
    N4497    N        0.89434    0.03271    0.65731    1.000
    N4498    N        0.94748    0.02123    0.70474    1.000
    Si4499   Si       0.98879    0.03473    0.69928    1.000
    Si4500   Si       0.84932    0.01373    0.83325    1.000
    N4501    N        0.80558    0.01360    0.82436    1.000
    N4502    N        0.78676    0.04068    0.75211    1.000
    N4503    N        0.85375    0.06144    0.75403    1.000
    Si4504   Si       0.79507    0.01004    0.78235    1.000
    Si4505   Si       0.86837    0.01949    0.76023    1.000
    N4506    N        0.87591    0.03213    0.80222    1.000
    Si4507   Si       0.91968    0.02977    0.80981    1.000
    N4508    N        0.93845    0.04197    0.77345    1.000
    N4509    N        0.93350    0.05489    0.84376    1.000
    Si4510   Si       0.97607    0.04974    0.85786    1.000
    N4511    N        0.86067    0.02835    0.87165    1.000
    N4512    N        0.83496    0.04927    0.93195    1.000
    N4513    N        0.78706    0.03465    0.88687    1.000
    Si4514   Si       0.83356    0.05275    0.97539    1.000
    Si4515   Si       0.81112    0.01531    0.91802    1.000
    N4516    N        0.81345    0.01720    0.99176    1.000
    N4517    N        0.73933    0.03532    0.99187    1.000
    Si4518   Si       0.77178    0.00555    0.98361    1.000
    N4519    N        0.87593    0.05467    0.98474    1.000
    Si4520   Si       0.86912    0.05499    0.90449    1.000
    N4521    N        0.98344    0.01540    0.88238    1.000
    Si4522   Si       0.89743    0.01832    0.96811    1.000
    N4523    N        0.89521    0.02413    0.92482    1.000
    N4524    N        0.93655    0.01423    0.98950    1.000
    N4525    N        0.76699    0.08617    0.04052    1.000
    Si4526   Si       0.80771    0.09388    0.02670    1.000
    Si4527   Si       0.76177    0.12345    0.06477    1.000
    N4528    N        0.86813    0.08498    0.09721    1.000
    Si4529   Si       0.87250    0.07442    0.05400    1.000
    N4530    N        0.87631    0.10975    0.02595    1.000
    Si4531   Si       0.97151    0.09714    0.02278    1.000
    N4532    N        0.96937    0.08807    0.06463    1.000
    N4533    N        0.93595    0.07642    0.00723    1.000
    Si4534   Si       0.95878    0.12040    0.09280    1.000
    Si4535   Si       0.88412    0.12284    0.10489    1.000
    N4536    N        0.78786    0.09124    0.19585    1.000
    Si4537   Si       0.82838    0.07562    0.19673    1.000
    N4538    N        0.84659    0.11408    0.20595    1.000
    Si4539   Si       0.74586    0.09502    0.18910    1.000
    N4540    N        0.73791    0.11218    0.14859    1.000
    Si4541   Si       0.88832    0.10679    0.22492    1.000
    Si4542   Si       0.95583    0.07637    0.20589    1.000
    Si4543   Si       0.97153    0.06969    0.14649    1.000
    N4544    N        0.95226    0.10562    0.13396    1.000
    N4545    N        0.97231    0.10637    0.23655    1.000
    N4546    N        0.91987    0.09967    0.19438    1.000
    N4547    N        0.80383    0.09605    0.34989    1.000
    N4548    N        0.75736    0.10090    0.29182    1.000
    Si4549   Si       0.77337    0.12370    0.32707    1.000
    N4550    N        0.74581    0.11130    0.35974    1.000
    Si4551   Si       0.83152    0.07223    0.33007    1.000
    Si4552   Si       0.76866    0.07122    0.36234    1.000
    N4553    N        0.87377    0.07724    0.25486    1.000
    N4554    N        0.87122    0.09118    0.32970    1.000
    N4555    N        0.93316    0.07824    0.29657    1.000
    N4556    N        0.98140    0.09673    0.34000    1.000
    Si4557   Si       0.94652    0.11179    0.32202    1.000
    Si4558   Si       0.89140    0.07344    0.29407    1.000
    Si4559   Si       0.89188    0.09882    0.36811    1.000
    Si4560   Si       0.77650    0.07858    0.43462    1.000
    N4561    N        0.85335    0.11531    0.47476    1.000
    N4562    N        0.78956    0.11826    0.42155    1.000
    Si4563   Si       0.81661    0.11995    0.38673    1.000
    N4564    N        0.85875    0.10900    0.39615    1.000
    Si4565   Si       0.84094    0.07269    0.47982    1.000
    N4566    N        0.74115    0.07756    0.46086    1.000
    N4567    N        0.92060    0.07007    0.38309    1.000
    N4568    N        0.91045    0.11110    0.44134    1.000
    Si4569   Si       0.90976    0.07569    0.47021    1.000
    Si4570   Si       0.79695    0.10235    0.56188    1.000
    N4571    N        0.75350    0.09832    0.55829    1.000
    N4572    N        0.80545    0.11680    0.52176    1.000
    Si4573   Si       0.85205    0.06985    0.58850    1.000
    N4574    N        0.82799    0.12601    0.58412    1.000
    N4575    N        0.88991    0.08498    0.57339    1.000
    N4576    N        0.95874    0.09792    0.57005    1.000
    Si4577   Si       0.88509    0.09784    0.53284    1.000
    N4578    N        0.91973    0.09511    0.50779    1.000
    Si4579   Si       0.95512    0.10842    0.52739    1.000
    Si4580   Si       0.92858    0.07754    0.59344    1.000
    Si4581   Si       0.98479    0.12546    0.59136    1.000
    N4582    N        0.98652    0.09948    0.49953    1.000
    Si4583   Si       0.84397    0.07943    0.71406    1.000
    N4584    N        0.85168    0.08137    0.63134    1.000
    N4585    N        0.81590    0.10664    0.73084    1.000
    N4586    N        0.78126    0.07901    0.64487    1.000
    Si4587   Si       0.77470    0.12123    0.65200    1.000
    N4588    N        0.75919    0.12235    0.69315    1.000
    Si4589   Si       0.90294    0.12667    0.71001    1.000
    Si4590   Si       0.94434    0.12413    0.65041    1.000
    Si4591   Si       0.97804    0.10797    0.71844    1.000
    N4592    N        0.92187    0.08989    0.63413    1.000
    N4593    N        0.97935    0.10900    0.67440    1.000
    N4594    N        0.93502    0.10334    0.73020    1.000
    N4595    N        0.87759    0.09566    0.69151    1.000
    Si4596   Si       0.88774    0.07435    0.65478    1.000
    Si4597   Si       0.80326    0.07955    0.76243    1.000
    N4598    N        0.82192    0.09098    0.80111    1.000
    N4599    N        0.76137    0.09959    0.76060    1.000
    N4600    N        0.79037    0.10024    0.86384    1.000
    Si4601   Si       0.79786    0.11954    0.82537    1.000
    Si4602   Si       0.86182    0.07461    0.79382    1.000
    N4603    N        0.90358    0.09232    0.79353    1.000
    Si4604   Si       0.93878    0.08589    0.76978    1.000
    N4605    N        0.97817    0.09596    0.78369    1.000
    Si4606   Si       0.92854    0.08853    0.87174    1.000
    Si4607   Si       0.80208    0.11543    0.94975    1.000
    Si4608   Si       0.76976    0.07275    0.88835    1.000
    N4609    N        0.81151    0.09107    0.98426    1.000
    N4610    N        0.77114    0.09329    0.92851    1.000
    N4611    N        0.89343    0.08948    0.89965    1.000
    N4612    N        0.88919    0.12044    0.96357    1.000
    Si4613   Si       0.87982    0.12391    0.92176    1.000
    N4614    N        0.97035    0.08483    0.88673    1.000
    Si4615   Si       0.89836    0.08835    0.99394    1.000
    Si4616   Si       0.81415    0.16371    0.07983    1.000
    Si4617   Si       0.79866    0.16447    0.01815    1.000
    N4618    N        0.75812    0.15187    0.03081    1.000
    N4619    N        0.85068    0.15182    0.09977    1.000
    N4620    N        0.78166    0.14420    0.09997    1.000
    N4621    N        0.81316    0.13174    0.04738    1.000
    Si4622   Si       0.98360    0.16965    0.99958    1.000
    N4623    N        0.95959    0.13947    0.02137    1.000
    Si4624   Si       0.93047    0.16162    0.04406    1.000
    N4625    N        0.89927    0.17194    0.01505    1.000
    N4626    N        0.92015    0.13629    0.07905    1.000
    Si4627   Si       0.87138    0.14434    0.99697    1.000
    N4628    N        0.98666    0.15590    0.09296    1.000
    N4629    N        0.79423    0.15401    0.17210    1.000
    Si4630   Si       0.76512    0.14619    0.13920    1.000
    Si4631   Si       0.80603    0.12881    0.20513    1.000
    Si4632   Si       0.87195    0.17817    0.13075    1.000
    N4633    N        0.96088    0.18149    0.24563    1.000
    N4634    N        0.94853    0.16277    0.18252    1.000
    Si4635   Si       0.93032    0.12728    0.16331    1.000
    N4636    N        0.89775    0.14333    0.14228    1.000
    N4637    N        0.79262    0.15786    0.31299    1.000
    Si4638   Si       0.81004    0.16681    0.27137    1.000
    N4639    N        0.85151    0.16002    0.27015    1.000
    Si4640   Si       0.75197    0.13004    0.25921    1.000
    N4641    N        0.79216    0.14101    0.24433    1.000
    N4642    N        0.96047    0.14355    0.29720    1.000
    Si4643   Si       0.95244    0.13940    0.25527    1.000
    Si4644   Si       0.89102    0.17315    0.26143    1.000
    N4645    N        0.91905    0.12891    0.35234    1.000
    N4646    N        0.96562    0.18016    0.35105    1.000
    N4647    N        0.91045    0.13724    0.24853    1.000
    Si4648   Si       0.95238    0.18500    0.30931    1.000
    N4649    N        0.81828    0.16377    0.37950    1.000
    N4650    N        0.75007    0.14134    0.48058    1.000
    Si4651   Si       0.76535    0.14965    0.44025    1.000
    N4652    N        0.86285    0.16761    0.43495    1.000
    N4653    N        0.78778    0.18624    0.43269    1.000
    Si4654   Si       0.92817    0.16745    0.37174    1.000
    Si4655   Si       0.87073    0.12454    0.43629    1.000
    N4656    N        0.93923    0.17061    0.41245    1.000
    N4657    N        0.97671    0.15177    0.45631    1.000
    N4658    N        0.91084    0.16714    0.48122    1.000
    Si4659   Si       0.93313    0.14660    0.44924    1.000
    Si4660   Si       0.97382    0.18863    0.43019    1.000
    Si4661   Si       0.77496    0.14636    0.51573    1.000
    Si4662   Si       0.75187    0.16850    0.59110    1.000
    N4663    N        0.77158    0.16774    0.55273    1.000
    Si4664   Si       0.83651    0.14031    0.50769    1.000
    Si4665   Si       0.86343    0.15422    0.57721    1.000
    N4666    N        0.74910    0.13847    0.62091    1.000
    N4667    N        0.80928    0.17359    0.49810    1.000
    N4668    N        0.87364    0.14163    0.53696    1.000
    N4669    N        0.95389    0.15005    0.53169    1.000
    Si4670   Si       0.91208    0.16109    0.52325    1.000
    N4671    N        0.87628    0.15038    0.61790    1.000
    N4672    N        0.95575    0.14705    0.61538    1.000
    N4673    N        0.80337    0.17259    0.71601    1.000
    Si4674   Si       0.78153    0.13561    0.72796    1.000
    N4675    N        0.81282    0.14277    0.65306    1.000
    Si4676   Si       0.81946    0.17947    0.67589    1.000
    Si4677   Si       0.84136    0.12331    0.62685    1.000
    N4678    N        0.91774    0.14910    0.67497    1.000
    Si4679   Si       0.89429    0.17571    0.64821    1.000
    N4680    N        0.88729    0.15440    0.73774    1.000
    N4681    N        0.99066    0.14379    0.73862    1.000
    N4682    N        0.81120    0.17235    0.78705    1.000
    N4683    N        0.82686    0.14571    0.84735    1.000
    Si4684   Si       0.84398    0.17435    0.81783    1.000
    N4685    N        0.75698    0.13733    0.81812    1.000
    Si4686   Si       0.74392    0.16344    0.84954    1.000
    N4687    N        0.74917    0.16176    0.75503    1.000
    Si4688   Si       0.77011    0.18269    0.78820    1.000
    Si4689   Si       0.98047    0.13969    0.78163    1.000
    N4690    N        0.88063    0.15794    0.80518    1.000
    N4691    N        0.94012    0.15161    0.78726    1.000
    Si4692   Si       0.90595    0.17255    0.77237    1.000
    Si4693   Si       0.91366    0.12896    0.81424    1.000
    N4694    N        0.92957    0.12787    0.85212    1.000
    Si4695   Si       0.80883    0.13422    0.88488    1.000
    Si4696   Si       0.75106    0.16787    0.92314    1.000
    N4697    N        0.78017    0.15266    0.95314    1.000
    N4698    N        0.77114    0.16031    0.88523    1.000
    N4699    N        0.83316    0.16055    0.98746    1.000
    N4700    N        0.83483    0.12719    0.91859    1.000
    N4701    N        0.97357    0.15227    0.89841    1.000
    N4702    N        0.89817    0.15816    0.90680    1.000
    Si4703   Si       0.93299    0.16001    0.88128    1.000
    Si4704   Si       0.84492    0.21680    0.08113    1.000
    N4705    N        0.82586    0.19236    0.04792    1.000
    Si4706   Si       0.81350    0.23017    0.02520    1.000
    N4707    N        0.80939    0.20411    0.10478    1.000
    Si4708   Si       0.74852    0.22455    0.02065    1.000
    N4709    N        0.78734    0.20535    0.00032    1.000
    N4710    N        0.84277    0.24476    0.99495    1.000
    Si4711   Si       0.97567    0.19806    0.08927    1.000
    N4712    N        0.88298    0.20839    0.10056    1.000
    N4713    N        0.94475    0.20209    0.05790    1.000
    Si4714   Si       0.91485    0.23490    0.11436    1.000
    Si4715   Si       0.94339    0.24338    0.04441    1.000
    N4716    N        0.90809    0.24256    0.01807    1.000
    Si4717   Si       0.79162    0.23717    0.12623    1.000
    N4718    N        0.78498    0.22482    0.16538    1.000
    Si4719   Si       0.78366    0.21681    0.23335    1.000
    N4720    N        0.82198    0.20067    0.21891    1.000
    N4721    N        0.74845    0.19856    0.21557    1.000
    N4722    N        0.85136    0.20408    0.15748    1.000
    Si4723   Si       0.74766    0.20913    0.17461    1.000
    Si4724   Si       0.81420    0.19327    0.17577    1.000
    Si4725   Si       0.85778    0.22681    0.22741    1.000
    N4726    N        0.94979    0.22520    0.19144    1.000
    N4727    N        0.89218    0.20077    0.22796    1.000
    N4728    N        0.94956    0.20984    0.12432    1.000
    Si4729   Si       0.96659    0.19611    0.16111    1.000
    Si4730   Si       0.93397    0.18981    0.21331    1.000
    N4731    N        0.78094    0.21722    0.33687    1.000
    N4732    N        0.78985    0.20634    0.27593    1.000
    N4733    N        0.84254    0.20547    0.32359    1.000
    Si4734   Si       0.81721    0.23125    0.29962    1.000
    Si4735   Si       0.75609    0.19329    0.30576    1.000
    Si4736   Si       0.81164    0.18574    0.34426    1.000
    N4737    N        0.84500    0.24271    0.26564    1.000
    Si4738   Si       0.88486    0.21227    0.32372    1.000
    N4739    N        0.90161    0.20034    0.36184    1.000
    N4740    N        0.98199    0.21224    0.29812    1.000
    N4741    N        0.90937    0.18836    0.29760    1.000
    Si4742   Si       0.77291    0.22696    0.43299    1.000
    N4743    N        0.83790    0.22461    0.41031    1.000
    N4744    N        0.79148    0.24220    0.46992    1.000
    Si4745   Si       0.82776    0.18424    0.41490    1.000
    N4746    N        0.89798    0.23191    0.44482    1.000
    N4747    N        0.96530    0.22319    0.45247    1.000
    Si4748   Si       0.88320    0.19482    0.46333    1.000
    Si4749   Si       0.91313    0.24132    0.37000    1.000
    N4750    N        0.77976    0.20253    0.60333    1.000
    Si4751   Si       0.80372    0.19925    0.56564    1.000
    N4752    N        0.80804    0.23177    0.53577    1.000
    N4753    N        0.84723    0.19428    0.56792    1.000
    Si4754   Si       0.81645    0.21621    0.49622    1.000
    N4755    N        0.85842    0.21327    0.49642    1.000
    Si4756   Si       0.86793    0.21914    0.53857    1.000
    Si4757   Si       0.94651    0.22490    0.54254    1.000
    N4758    N        0.96418    0.21823    0.58094    1.000
    N4759    N        0.90892    0.20239    0.53885    1.000
    N4760    N        0.98141    0.21084    0.51953    1.000
    Si4761   Si       0.95696    0.19100    0.61639    1.000
    N4762    N        0.80371    0.22062    0.66275    1.000
    Si4763   Si       0.78873    0.23792    0.62475    1.000
    N4764    N        0.86065    0.19288    0.67175    1.000
    Si4765   Si       0.77088    0.23845    0.68273    1.000
    Si4766   Si       0.84753    0.24248    0.66806    1.000
    N4767    N        0.99125    0.21225    0.70930    1.000
    N4768    N        0.92153    0.20470    0.63352    1.000
    N4769    N        0.76180    0.19872    0.82775    1.000
    N4770    N        0.77859    0.21860    0.76350    1.000
    N4771    N        0.85512    0.21508    0.82570    1.000
    Si4772   Si       0.77243    0.23522    0.84588    1.000
    N4773    N        0.84587    0.22310    0.75449    1.000
    Si4774   Si       0.81370    0.19636    0.75051    1.000
    N4775    N        0.80838    0.23277    0.87430    1.000
    Si4776   Si       0.87163    0.23145    0.78786    1.000
    N4777    N        0.91193    0.21268    0.77929    1.000
    N4778    N        0.82346    0.21779    0.93794    1.000
    N4779    N        0.75756    0.20902    0.93148    1.000
    Si4780   Si       0.78795    0.23408    0.91283    1.000
    Si4781   Si       0.80426    0.18830    0.96307    1.000
    Si4782   Si       0.85869    0.23826    0.95454    1.000
    N4783    N        0.93078    0.20279    0.87797    1.000
    N4784    N        0.89242    0.21110    0.95310    1.000
    N4785    N        0.97781    0.21533    0.92315    1.000
    Si4786   Si       0.91202    0.20625    0.99242    1.000
    Si4787   Si       0.96051    0.23374    0.88907    1.000
    N4788    N        0.95462    0.20199    0.99078    1.000
    Si4789   Si       0.97686    0.22743    0.96384    1.000
    Si4790   Si       0.89728    0.20251    0.91092    1.000
    Si4791   Si       0.76164    0.27578    0.07354    1.000
    Si4792   Si       0.82970    0.28916    0.08574    1.000
    N4793    N        0.84445    0.25484    0.05914    1.000
    N4794    N        0.75705    0.25699    0.11246    1.000
    N4795    N        0.77971    0.24537    0.04858    1.000
    Si4796   Si       0.87113    0.26255    0.02516    1.000
    N4797    N        0.92726    0.26183    0.08136    1.000
    N4798    N        0.98118    0.26184    0.03514    1.000
    N4799    N        0.82700    0.26569    0.12396    1.000
    N4800    N        0.77847    0.25862    0.22630    1.000
    Si4801   Si       0.81093    0.28230    0.21202    1.000
    N4802    N        0.84646    0.25877    0.19603    1.000
    Si4803   Si       0.85345    0.24906    0.15459    1.000
    Si4804   Si       0.89453    0.30291    0.15637    1.000
    N4805    N        0.97885    0.29285    0.19620    1.000
    Si4806   Si       0.96830    0.25532    0.21408    1.000
    N4807    N        0.89208    0.26096    0.14148    1.000
    Si4808   Si       0.91455    0.30116    0.24029    1.000
    N4809    N        0.82289    0.27098    0.31337    1.000
    N4810    N        0.76410    0.29207    0.33942    1.000
    Si4811   Si       0.84559    0.28564    0.27783    1.000
    Si4812   Si       0.76082    0.25121    0.35695    1.000
    N4813    N        0.89687    0.25405    0.33067    1.000
    Si4814   Si       0.90537    0.29323    0.31768    1.000
    N4815    N        0.88901    0.29623    0.27713    1.000
    N4816    N        0.94370    0.26671    0.24856    1.000
    Si4817   Si       0.96099    0.29470    0.27659    1.000
    N4818    N        0.94837    0.29594    0.31928    1.000
    N4819    N        0.84157    0.28679    0.43362    1.000
    Si4820   Si       0.80757    0.28300    0.40587    1.000
    N4821    N        0.77822    0.25421    0.39722    1.000
    N4822    N        0.80660    0.30467    0.49463    1.000
    Si4823   Si       0.77364    0.27524    0.49248    1.000
    N4824    N        0.88932    0.26960    0.39296    1.000
    N4825    N        0.94077    0.29065    0.44466    1.000
    Si4826   Si       0.98465    0.29436    0.44813    1.000
    N4827    N        0.94903    0.24161    0.39337    1.000
    Si4828   Si       0.93591    0.24839    0.43451    1.000
    Si4829   Si       0.86499    0.25195    0.42548    1.000
    N4830    N        0.75868    0.27498    0.53404    1.000
    Si4831   Si       0.79616    0.27203    0.55376    1.000
    Si4832   Si       0.85185    0.26805    0.59815    1.000
    N4833    N        0.81024    0.25889    0.59474    1.000
    N4834    N        0.87236    0.25803    0.55861    1.000
    Si4835   Si       0.91129    0.28173    0.56170    1.000
    N4836    N        0.94244    0.26678    0.53483    1.000
    N4837    N        0.92313    0.26859    0.60246    1.000
    Si4838   Si       0.97588    0.29157    0.52206    1.000
    N4839    N        0.78763    0.26462    0.71317    1.000
    N4840    N        0.82878    0.28421    0.66368    1.000
    N4841    N        0.75419    0.25578    0.64615    1.000
    Si4842   Si       0.81177    0.30016    0.70207    1.000
    N4843    N        0.86437    0.24251    0.62935    1.000
    Si4844   Si       0.91459    0.28060    0.70231    1.000
    N4845    N        0.93279    0.27061    0.66430    1.000
    Si4846   Si       0.90792    0.24579    0.63603    1.000
    N4847    N        0.87769    0.25861    0.69562    1.000
    Si4848   Si       0.98151    0.25512    0.71888    1.000
    Si4849   Si       0.95210    0.28852    0.62814    1.000
    N4850    N        0.93991    0.26196    0.73239    1.000
    N4851    N        0.85424    0.28321    0.84474    1.000
    N4852    N        0.75740    0.26538    0.81821    1.000
    Si4853   Si       0.77548    0.26106    0.75329    1.000
    N4854    N        0.79623    0.29703    0.77089    1.000
    Si4855   Si       0.85012    0.24171    0.86042    1.000
    N4856    N        0.88716    0.27195    0.78350    1.000
    N4857    N        0.95321    0.26490    0.80459    1.000
    Si4858   Si       0.92687    0.25336    0.77137    1.000
    N4859    N        0.77543    0.27870    0.91866    1.000
    Si4860   Si       0.89897    0.27633    0.91040    1.000
    N4861    N        0.87826    0.27801    0.94799    1.000
    N4862    N        0.94034    0.26750    0.90959    1.000
    Si4863   Si       0.97191    0.29208    0.92950    1.000
    N4864    N        0.98179    0.27063    0.96647    1.000
    N4865    N        0.87537    0.23939    0.89614    1.000
    Si4866   Si       0.77214    0.34095    0.05415    1.000
    N4867    N        0.76702    0.32514    0.01272    1.000
    N4868    N        0.85196    0.32549    0.08342    1.000
    N4869    N        0.79000    0.30667    0.07477    1.000
    Si4870   Si       0.88146    0.33283    0.05322    1.000
    N4871    N        0.92204    0.33080    0.06552    1.000
    Si4872   Si       0.95531    0.35272    0.04549    1.000
    N4873    N        0.97633    0.32875    0.01416    1.000
    N4874    N        0.87463    0.30513    0.02023    1.000
    N4875    N        0.98318    0.30208    0.09232    1.000
    Si4876   Si       0.93871    0.30096    0.09331    1.000
    N4877    N        0.82771    0.30660    0.24485    1.000
    Si4878   Si       0.82134    0.34983    0.23721    1.000
    Si4879   Si       0.82051    0.34399    0.16541    1.000
    N4880    N        0.79607    0.31453    0.18857    1.000
    Si4881   Si       0.76375    0.33916    0.20724    1.000
    N4882    N        0.85900    0.32421    0.15588    1.000
    N4883    N        0.77878    0.35324    0.24659    1.000
    N4884    N        0.80061    0.35528    0.12924    1.000
    N4885    N        0.93117    0.31612    0.13671    1.000
    Si4886   Si       0.94949    0.31963    0.17663    1.000
    N4887    N        0.91066    0.30532    0.19691    1.000
    N4888    N        0.81554    0.33740    0.30830    1.000
    N4889    N        0.74125    0.34955    0.31160    1.000
    Si4890   Si       0.80550    0.30537    0.33496    1.000
    N4891    N        0.88572    0.32300    0.34353    1.000
    N4892    N        0.94519    0.32971    0.25617    1.000
    N4893    N        0.74149    0.35559    0.39649    1.000
    N4894    N        0.83319    0.35881    0.45537    1.000
    N4895    N        0.78508    0.31125    0.43027    1.000
    Si4896   Si       0.81993    0.31699    0.45593    1.000
    Si4897   Si       0.74339    0.32146    0.42650    1.000
    N4898    N        0.82858    0.30389    0.37278    1.000
    Si4899   Si       0.91948    0.32885    0.44260    1.000
    N4900    N        0.89391    0.33276    0.40927    1.000
    Si4901   Si       0.87158    0.30848    0.38160    1.000
    N4902    N        0.90213    0.34720    0.47826    1.000
    N4903    N        0.94735    0.36250    0.42694    1.000
    Si4904   Si       0.77681    0.33287    0.58720    1.000
    Si4905   Si       0.81580    0.33419    0.52393    1.000
    N4906    N        0.80506    0.31407    0.56080    1.000
    N4907    N        0.86243    0.30959    0.60444    1.000
    N4908    N        0.84962    0.35853    0.53991    1.000
    N4909    N        0.74243    0.30446    0.59140    1.000
    Si4910   Si       0.87140    0.34153    0.57385    1.000
    N4911    N        0.90270    0.32202    0.54995    1.000
    Si4912   Si       0.92021    0.34818    0.51875    1.000
    N4913    N        0.96359    0.33344    0.51849    1.000
    N4914    N        0.79549    0.33220    0.62795    1.000
    N4915    N        0.78350    0.33372    0.69724    1.000
    N4916    N        0.84225    0.32460    0.72454    1.000
    Si4917   Si       0.76513    0.34144    0.65880    1.000
    Si4918   Si       0.83554    0.31775    0.63874    1.000
    Si4919   Si       0.87319    0.34486    0.70200    1.000
    N4920    N        0.93765    0.32884    0.62358    1.000
    Si4921   Si       0.89988    0.35062    0.63567    1.000
    N4922    N        0.97670    0.32930    0.73268    1.000
    N4923    N        0.86709    0.33843    0.65993    1.000
    N4924    N        0.90851    0.32261    0.71684    1.000
    Si4925   Si       0.93527    0.34564    0.74230    1.000
    Si4926   Si       0.82322    0.33026    0.76201    1.000
    N4927    N        0.85019    0.33216    0.79442    1.000
    N4928    N        0.79070    0.32694    0.83855    1.000
    Si4929   Si       0.82809    0.31579    0.85629    1.000
    N4930    N        0.86148    0.35261    0.85458    1.000
    Si4931   Si       0.77182    0.30636    0.80571    1.000
    N4932    N        0.74082    0.32999    0.78503    1.000
    N4933    N        0.94421    0.34264    0.78632    1.000
    Si4934   Si       0.90071    0.33951    0.86512    1.000
    N4935    N        0.91287    0.31093    0.83434    1.000
    Si4936   Si       0.95040    0.30784    0.81521    1.000
    Si4937   Si       0.87558    0.30105    0.81108    1.000
    Si4938   Si       0.79864    0.31257    0.92764    1.000
    N4939    N        0.82311    0.32607    0.89781    1.000
    Si4940   Si       0.79576    0.34129    0.98381    1.000
    N4941    N        0.77612    0.34638    0.94450    1.000
    N4942    N        0.82018    0.30763    0.96602    1.000
    Si4943   Si       0.86252    0.30915    0.97687    1.000
    N4944    N        0.95630    0.32937    0.94743    1.000
    N4945    N        0.90227    0.32039    0.90316    1.000
    Si4946   Si       0.98481    0.34327    0.97520    1.000
    N4947    N        0.88499    0.34353    0.96424    1.000
    Si4948   Si       0.91794    0.34379    0.93507    1.000
    Si4949   Si       0.83472    0.38727    0.03195    1.000
    Si4950   Si       0.76897    0.40328    0.07163    1.000
    N4951    N        0.80339    0.37210    0.06100    1.000
    N4952    N        0.76757    0.41662    0.11530    1.000
    N4953    N        0.85286    0.39263    0.10754    1.000
    Si4954   Si       0.82791    0.35963    0.09641    1.000
    N4955    N        0.74090    0.36720    0.06942    1.000
    N4956    N        0.87383    0.37404    0.03855    1.000
    Si4957   Si       0.89956    0.40741    0.02335    1.000
    N4958    N        0.93784    0.38668    0.02142    1.000
    N4959    N        0.97732    0.36629    0.08026    1.000
    Si4960   Si       0.96862    0.40983    0.00242    1.000
    Si4961   Si       0.98662    0.40955    0.07929    1.000
    Si4962   Si       0.84694    0.40970    0.20490    1.000
    Si4963   Si       0.76518    0.38012    0.14024    1.000
    N4964    N        0.76436    0.37316    0.18250    1.000
    N4965    N        0.83029    0.37041    0.19893    1.000
    N4966    N        0.94381    0.36183    0.18799    1.000
    Si4967   Si       0.98397    0.37517    0.17940    1.000
    Si4968   Si       0.92112    0.39804    0.19271    1.000
    N4969    N        0.88622    0.39835    0.21679    1.000
    N4970    N        0.98376    0.40504    0.14797    1.000
    N4971    N        0.91165    0.40675    0.14962    1.000
    Si4972   Si       0.97324    0.41829    0.23601    1.000
    N4973    N        0.79388    0.40011    0.29834    1.000
    N4974    N        0.85032    0.38654    0.33934    1.000
    Si4975   Si       0.82920    0.37676    0.30284    1.000
    N4976    N        0.84438    0.37598    0.26355    1.000
    Si4977   Si       0.76402    0.37278    0.28163    1.000
    Si4978   Si       0.88608    0.39284    0.26108    1.000
    N4979    N        0.94083    0.40058    0.25762    1.000
    N4980    N        0.96694    0.37523    0.31593    1.000
    Si4981   Si       0.95039    0.40350    0.34621    1.000
    N4982    N        0.90300    0.36938    0.29453    1.000
    N4983    N        0.91740    0.38242    0.36235    1.000
    Si4984   Si       0.94336    0.36457    0.28154    1.000
    Si4985   Si       0.88883    0.36631    0.33554    1.000
    N4986    N        0.98687    0.39936    0.37032    1.000
    Si4987   Si       0.83172    0.41306    0.37042    1.000
    N4988    N        0.84857    0.40809    0.49045    1.000
    Si4989   Si       0.80553    0.38730    0.47354    1.000
    N4990    N        0.76740    0.39940    0.45463    1.000
    Si4991   Si       0.75966    0.39259    0.41246    1.000
    N4992    N        0.79782    0.39483    0.39060    1.000
    Si4993   Si       0.98742    0.37266    0.44371    1.000
    N4994    N        0.97789    0.38780    0.48665    1.000
    Si4995   Si       0.91273    0.37331    0.40343    1.000
    N4996    N        0.88946    0.39702    0.42943    1.000
    Si4997   Si       0.87191    0.37704    0.46482    1.000
    Si4998   Si       0.76864    0.39064    0.53771    1.000
    Si4999   Si       0.76788    0.40193    0.61084    1.000
    N5000    N        0.76681    0.37321    0.57663    1.000
    N5001    N        0.79266    0.36715    0.51096    1.000
    Si5002   Si       0.86460    0.39822    0.53049    1.000
    N5003    N        0.88720    0.37202    0.59927    1.000
    N5004    N        0.90913    0.38962    0.52799    1.000
    N5005    N        0.97108    0.39520    0.55375    1.000
    Si5006   Si       0.88634    0.41490    0.59543    1.000
    Si5007   Si       0.93623    0.41918    0.54181    1.000
    N5008    N        0.80818    0.40008    0.69214    1.000
    Si5009   Si       0.78461    0.37265    0.71995    1.000
    N5010    N        0.75753    0.38396    0.64848    1.000
    N5011    N        0.74375    0.38811    0.71394    1.000
    Si5012   Si       0.74476    0.41516    0.67844    1.000
    Si5013   Si       0.84477    0.41896    0.70986    1.000
    N5014    N        0.87352    0.38825    0.70654    1.000
    N5015    N        0.93289    0.38981    0.73721    1.000
    N5016    N        0.92663    0.37577    0.66318    1.000
    Si5017   Si       0.91649    0.39964    0.69648    1.000
    Si5018   Si       0.96186    0.35914    0.64537    1.000
    N5019    N        0.76854    0.38351    0.81537    1.000
    Si5020   Si       0.79473    0.40468    0.78594    1.000
    N5021    N        0.83445    0.40847    0.80906    1.000
    Si5022   Si       0.76819    0.38192    0.85899    1.000
    Si5023   Si       0.85570    0.37021    0.81403    1.000
    N5024    N        0.80188    0.37017    0.75942    1.000
    Si5025   Si       0.93000    0.37596    0.81225    1.000
    N5026    N        0.89178    0.38895    0.79687    1.000
    N5027    N        0.93239    0.36813    0.85439    1.000
    N5028    N        0.95101    0.41317    0.80428    1.000
    N5029    N        0.80739    0.39369    0.87115    1.000
    N5030    N        0.85597    0.38824    0.92108    1.000
    Si5031   Si       0.83692    0.36780    0.88790    1.000
    N5032    N        0.82780    0.36977    0.99122    1.000
    Si5033   Si       0.86125    0.37903    0.96465    1.000
    N5034    N        0.74059    0.36375    0.88818    1.000
    Si5035   Si       0.95527    0.39183    0.88722    1.000
    N5036    N        0.92743    0.38496    0.92242    1.000
    N5037    N        0.88366    0.41211    0.98202    1.000
    Si5038   Si       0.79190    0.45387    0.02513    1.000
    N5039    N        0.82864    0.43029    0.02113    1.000
    N5040    N        0.76159    0.43472    0.04515    1.000
    N5041    N        0.81974    0.46797    0.10971    1.000
    N5042    N        0.90251    0.43987    0.04945    1.000
    Si5043   Si       0.91970    0.45834    0.08434    1.000
    N5044    N        0.95156    0.43185    0.09541    1.000
    N5045    N        0.88735    0.45916    0.11487    1.000
    Si5046   Si       0.78234    0.45611    0.12813    1.000
    Si5047   Si       0.82197    0.46555    0.18923    1.000
    N5048    N        0.82803    0.43893    0.22874    1.000
    N5049    N        0.78024    0.46004    0.17018    1.000
    N5050    N        0.84470    0.43273    0.16662    1.000
    Si5051   Si       0.74168    0.46441    0.18594    1.000
    N5052    N        0.94896    0.43071    0.19950    1.000
    N5053    N        0.95595    0.47114    0.15116    1.000
    Si5054   Si       0.95809    0.47194    0.19555    1.000
    Si5055   Si       0.94744    0.42978    0.14082    1.000
    Si5056   Si       0.87143    0.42054    0.13405    1.000
    N5057    N        0.81331    0.44552    0.34877    1.000
    Si5058   Si       0.78520    0.43791    0.31633    1.000
    N5059    N        0.78573    0.47158    0.28735    1.000
    N5060    N        0.74513    0.44782    0.33228    1.000
    Si5061   Si       0.81422    0.47028    0.25398    1.000
    Si5062   Si       0.84088    0.47805    0.36317    1.000
    N5063    N        0.95939    0.45884    0.25804    1.000
    N5064    N        0.93846    0.43885    0.32422    1.000
    N5065    N        0.88914    0.43491    0.27497    1.000
    Si5066   Si       0.91544    0.46900    0.34817    1.000
    Si5067   Si       0.93178    0.43609    0.28168    1.000
    Si5068   Si       0.87673    0.47410    0.29263    1.000
    N5069    N        0.87408    0.47027    0.33529    1.000
    Si5070   Si       0.85112    0.45059    0.48298    1.000
    N5071    N        0.85374    0.44270    0.39518    1.000
    N5072    N        0.82127    0.47668    0.46559    1.000
    Si5073   Si       0.84266    0.47336    0.42747    1.000
    Si5074   Si       0.89344    0.43778    0.41508    1.000
    N5075    N        0.94564    0.44855    0.44856    1.000
    Si5076   Si       0.91748    0.46630    0.47951    1.000
    Si5077   Si       0.95663    0.46711    0.40956    1.000
    N5078    N        0.87914    0.46138    0.44847    1.000
    N5079    N        0.92185    0.44891    0.38609    1.000
    Si5080   Si       0.97318    0.42925    0.47640    1.000
    Si5081   Si       0.81461    0.44139    0.57644    1.000
    Si5082   Si       0.76716    0.46791    0.53998    1.000
    N5083    N        0.78751    0.42850    0.54302    1.000
    N5084    N        0.85533    0.42796    0.56479    1.000
    N5085    N        0.80505    0.42304    0.61383    1.000
    Si5086   Si       0.88595    0.46678    0.55179    1.000
    N5087    N        0.94892    0.44770    0.50967    1.000
    N5088    N        0.91621    0.44266    0.57218    1.000
    N5089    N        0.88475    0.46000    0.50999    1.000
    N5090    N        0.97868    0.46593    0.56731    1.000
    Si5091   Si       0.94054    0.47993    0.58402    1.000
    N5092    N        0.77025    0.44830    0.66700    1.000
    N5093    N        0.84278    0.45277    0.68248    1.000
    Si5094   Si       0.80979    0.42952    0.65946    1.000
    N5095    N        0.96279    0.45181    0.74592    1.000
    N5096    N        0.91715    0.44288    0.68991    1.000
    N5097    N        0.87854    0.43559    0.63099    1.000
    Si5098   Si       0.94479    0.47200    0.71159    1.000
    Si5099   Si       0.88499    0.45997    0.66679    1.000
    N5100    N        0.79439    0.45652    0.83664    1.000
    N5101    N        0.77627    0.43883    0.76517    1.000
    Si5102   Si       0.75114    0.45458    0.84191    1.000
    Si5103   Si       0.82214    0.42690    0.84781    1.000
    Si5104   Si       0.80766    0.46583    0.75253    1.000
    N5105    N        0.84221    0.43621    0.74906    1.000
    Si5106   Si       0.86779    0.42404    0.78259    1.000
    N5107    N        0.90177    0.45133    0.77463    1.000
    Si5108   Si       0.97376    0.43814    0.83214    1.000
    Si5109   Si       0.93668    0.42368    0.76507    1.000
    N5110    N        0.95026    0.43272    0.87422    1.000
    N5111    N        0.84914    0.44730    0.87497    1.000
    N5112    N        0.77745    0.47465    0.98629    1.000
    Si5113   Si       0.85064    0.44084    0.98576    1.000
    N5114    N        0.82829    0.44439    0.94801    1.000
    N5115    N        0.76535    0.44621    0.92250    1.000
    Si5116   Si       0.79364    0.46976    0.94605    1.000
    Si5117   Si       0.85639    0.43143    0.91754    1.000
    Si5118   Si       0.97987    0.46375    0.94527    1.000
    Si5119   Si       0.92803    0.46446    0.89471    1.000
    N5120    N        0.89718    0.44929    0.92616    1.000
    N5121    N        0.95275    0.43687    0.96949    1.000
    Si5122   Si       0.91833    0.41738    0.95146    1.000
    Si5123   Si       0.79910    0.49984    0.08606    1.000
    N5124    N        0.79797    0.49370    0.04353    1.000
    Si5125   Si       0.77498    0.51211    0.01067    1.000
    N5126    N        0.75940    0.48736    0.10215    1.000
    N5127    N        0.86886    0.52071    0.10378    1.000
    N5128    N        0.93427    0.50129    0.07556    1.000
    Si5129   Si       0.97625    0.51173    0.06674    1.000
    Si5130   Si       0.90039    0.53151    0.07352    1.000
    N5131    N        0.88515    0.53036    0.03337    1.000
    N5132    N        0.84241    0.49994    0.16842    1.000
    Si5133   Si       0.85506    0.48796    0.12682    1.000
    N5134    N        0.80221    0.49616    0.22212    1.000
    Si5135   Si       0.78799    0.53552    0.23335    1.000
    N5136    N        0.74600    0.53528    0.24372    1.000
    N5137    N        0.93207    0.50064    0.21416    1.000
    N5138    N        0.81869    0.50964    0.34194    1.000
    N5139    N        0.75826    0.52165    0.31143    1.000
    N5140    N        0.84120    0.49766    0.27643    1.000
    Si5141   Si       0.80164    0.51194    0.30144    1.000
    Si5142   Si       0.74513    0.48098    0.30393    1.000
    Si5143   Si       0.85113    0.53931    0.26464    1.000
    N5144    N        0.98299    0.51315    0.26904    1.000
    N5145    N        0.91139    0.49748    0.28362    1.000
    N5146    N        0.92591    0.51210    0.34840    1.000
    Si5147   Si       0.94228    0.50080    0.25613    1.000
    Si5148   Si       0.91291    0.52990    0.31187    1.000
    N5149    N        0.99092    0.52546    0.34638    1.000
    Si5150   Si       0.79576    0.50614    0.48449    1.000
    Si5151   Si       0.75080    0.52482    0.42562    1.000
    N5152    N        0.83423    0.50445    0.39984    1.000
    N5153    N        0.76623    0.52676    0.38580    1.000
    Si5154   Si       0.80940    0.53340    0.37853    1.000
    N5155    N        0.78609    0.53348    0.45341    1.000
    Si5156   Si       0.93439    0.53401    0.44569    1.000
    N5157    N        0.94835    0.51068    0.41066    1.000
    Si5158   Si       0.95540    0.53358    0.37364    1.000
    N5159    N        0.92516    0.51057    0.48189    1.000
    Si5160   Si       0.81946    0.51593    0.55984    1.000
    N5161    N        0.81717    0.52709    0.51785    1.000
    N5162    N        0.85928    0.49939    0.56472    1.000
    N5163    N        0.76085    0.48842    0.50215    1.000
    N5164    N        0.79560    0.48038    0.57024    1.000
    N5165    N        0.92090    0.50630    0.55475    1.000
    Si5166   Si       0.94439    0.52221    0.51873    1.000
    Si5167   Si       0.88800    0.53171    0.56604    1.000
    N5168    N        0.98708    0.51247    0.51217    1.000
    N5169    N        0.93431    0.49378    0.62303    1.000
    Si5170   Si       0.83432    0.50177    0.68642    1.000
    N5171    N        0.80688    0.49752    0.72221    1.000
    N5172    N        0.80699    0.50783    0.65047    1.000
    Si5173   Si       0.76806    0.52175    0.71975    1.000
    Si5174   Si       0.76561    0.48876    0.65244    1.000
    N5175    N        0.74537    0.50889    0.68480    1.000
    Si5176   Si       0.89307    0.52853    0.70091    1.000
    Si5177   Si       0.90596    0.52242    0.64017    1.000
    N5178    N        0.97445    0.48918    0.68576    1.000
    Si5179   Si       0.97486    0.49727    0.64343    1.000
    N5180    N        0.87599    0.50347    0.66830    1.000
    N5181    N        0.91515    0.50037    0.72646    1.000
    N5182    N        0.83767    0.51534    0.85164    1.000
    Si5183   Si       0.80729    0.49719    0.82528    1.000
    N5184    N        0.77300    0.52285    0.82302    1.000
    N5185    N        0.75329    0.50274    0.75717    1.000
    Si5186   Si       0.83467    0.52146    0.75474    1.000
    N5187    N        0.82125    0.49002    0.78432    1.000
    Si5188   Si       0.76720    0.53700    0.78358    1.000
    N5189    N        0.93067    0.51397    0.79461    1.000
    Si5190   Si       0.97013    0.51438    0.80879    1.000
    N5191    N        0.87353    0.52567    0.77672    1.000
    Si5192   Si       0.90362    0.49379    0.76803    1.000
    N5193    N        0.96074    0.53350    0.84792    1.000
    Si5194   Si       0.92149    0.53270    0.86490    1.000
    N5195    N        0.90489    0.49451    0.87324    1.000
    N5196    N        0.79022    0.51162    0.93267    1.000
    Si5197   Si       0.74901    0.52526    0.92733    1.000
    N5198    N        0.85577    0.50182    0.91990    1.000
    Si5199   Si       0.82907    0.53196    0.93229    1.000
    Si5200   Si       0.86233    0.48891    0.87812    1.000
    Si5201   Si       0.88606    0.48640    0.94617    1.000
    N5202    N        0.90801    0.52182    0.96221    1.000
    N5203    N        0.86591    0.48159    0.98571    1.000
    N5204    N        0.95158    0.48617    0.92232    1.000
    Si5205   Si       0.87432    0.52476    0.99319    1.000
    Si5206   Si       0.94304    0.52853    0.93749    1.000
    Si5207   Si       0.77395    0.57265    0.10059    1.000
    N5208    N        0.78330    0.55546    0.01371    1.000
    Si5209   Si       0.75384    0.56866    0.04215    1.000
    Si5210   Si       0.84369    0.55545    0.11429    1.000
    N5211    N        0.74411    0.54897    0.07958    1.000
    N5212    N        0.85099    0.59044    0.08751    1.000
    N5213    N        0.80517    0.54015    0.10110    1.000
    N5214    N        0.91785    0.56936    0.08604    1.000
    Si5215   Si       0.95920    0.58193    0.09357    1.000
    Si5216   Si       0.77221    0.58377    0.17966    1.000
    N5217    N        0.79909    0.55540    0.19596    1.000
    N5218    N        0.84985    0.56990    0.15344    1.000
    Si5219   Si       0.83845    0.54112    0.18417    1.000
    N5220    N        0.86072    0.54714    0.22313    1.000
    N5221    N        0.77929    0.59301    0.13742    1.000
    N5222    N        0.92695    0.57241    0.19160    1.000
    N5223    N        0.96685    0.58320    0.13609    1.000
    Si5224   Si       0.89231    0.57353    0.21599    1.000
    N5225    N        0.79504    0.56843    0.34578    1.000
    Si5226   Si       0.79915    0.58222    0.30131    1.000
    Si5227   Si       0.75601    0.54724    0.34718    1.000
    N5228    N        0.80728    0.54904    0.27234    1.000
    N5229    N        0.74957    0.58376    0.29344    1.000
    Si5230   Si       0.82917    0.59333    0.36780    1.000
    N5231    N        0.87270    0.58125    0.36667    1.000
    N5232    N        0.94430    0.55863    0.30339    1.000
    N5233    N        0.87475    0.54992    0.30081    1.000
    Si5234   Si       0.87771    0.58686    0.32436    1.000
    Si5235   Si       0.92977    0.59501    0.28818    1.000
    N5236    N        0.90273    0.59399    0.25472    1.000
    Si5237   Si       0.98360    0.53920    0.30400    1.000
    Si5238   Si       0.80957    0.56898    0.44575    1.000
    N5239    N        0.82061    0.57013    0.40344    1.000
    N5240    N        0.84318    0.56985    0.47022    1.000
    Si5241   Si       0.74107    0.59509    0.44746    1.000
    N5242    N        0.96919    0.55734    0.45312    1.000
    N5243    N        0.90190    0.55860    0.43650    1.000
    Si5244   Si       0.97093    0.58970    0.42005    1.000
    Si5245   Si       0.89990    0.58231    0.39998    1.000
    N5246    N        0.94380    0.57298    0.38845    1.000
    Si5247   Si       0.87891    0.59788    0.45942    1.000
    Si5248   Si       0.83892    0.56463    0.51297    1.000
    N5249    N        0.81308    0.55114    0.58460    1.000
    Si5250   Si       0.81348    0.59468    0.57560    1.000
    N5251    N        0.88777    0.54487    0.60840    1.000
    N5252    N        0.87855    0.56071    0.53469    1.000
    N5253    N        0.94690    0.56442    0.53001    1.000
    Si5254   Si       0.91245    0.59030    0.52549    1.000
    Si5255   Si       0.86553    0.58095    0.62109    1.000
    N5256    N        0.76374    0.55930    0.62676    1.000
    Si5257   Si       0.80442    0.54412    0.62715    1.000
    Si5258   Si       0.85379    0.58012    0.72356    1.000
    N5259    N        0.76593    0.56378    0.72233    1.000
    N5260    N        0.82961    0.57592    0.64527    1.000
    N5261    N        0.85172    0.53644    0.71532    1.000
    N5262    N        0.98757    0.55318    0.70843    1.000
    N5263    N        0.92119    0.54552    0.67311    1.000
    N5264    N        0.97927    0.54148    0.64002    1.000
    Si5265   Si       0.96184    0.55953    0.67382    1.000
    N5266    N        0.89540    0.58905    0.71583    1.000
    Si5267   Si       0.84850    0.55596    0.86006    1.000
    N5268    N        0.82492    0.58328    0.83598    1.000
    N5269    N        0.80784    0.55170    0.77211    1.000
    Si5270   Si       0.82431    0.58962    0.79123    1.000
    N5271    N        0.86128    0.59432    0.76688    1.000
    Si5272   Si       0.90121    0.54869    0.80192    1.000
    N5273    N        0.89007    0.55381    0.84399    1.000
    Si5274   Si       0.97043    0.58136    0.78396    1.000
    N5275    N        0.92624    0.57950    0.78341    1.000
    Si5276   Si       0.99017    0.56520    0.85380    1.000
    N5277    N        0.97936    0.59617    0.82577    1.000
    N5278    N        0.73632    0.54661    0.88862    1.000
    N5279    N        0.83974    0.54364    0.97266    1.000
    N5280    N        0.79475    0.58665    0.95240    1.000
    Si5281   Si       0.81275    0.57402    0.98933    1.000
    N5282    N        0.84052    0.56437    0.90314    1.000
    N5283    N        0.98720    0.58741    0.89133    1.000
    N5284    N        0.93105    0.55298    0.90282    1.000
    Si5285   Si       0.96642    0.58903    0.97721    1.000
    N5286    N        0.96955    0.54875    0.96561    1.000
    Si5287   Si       0.94576    0.59318    0.90338    1.000
    Si5288   Si       0.82295    0.60926    0.05703    1.000
    N5289    N        0.82940    0.60571    0.01430    1.000
    N5290    N        0.75277    0.63794    0.01839    1.000
    Si5291   Si       0.76678    0.63548    0.05853    1.000
    N5292    N        0.74187    0.64473    0.09216    1.000
    N5293    N        0.80834    0.65090    0.06464    1.000
    N5294    N        0.78283    0.59496    0.06384    1.000
    N5295    N        0.90303    0.63187    0.06706    1.000
    N5296    N        0.97491    0.61607    0.07287    1.000
    Si5297   Si       0.92429    0.63428    0.02931    1.000
    N5298    N        0.95381    0.60649    0.01471    1.000
    Si5299   Si       0.89209    0.60338    0.09535    1.000
    N5300    N        0.89340    0.63211    0.99963    1.000
    N5301    N        0.83837    0.64137    0.14976    1.000
    N5302    N        0.78285    0.62532    0.18965    1.000
    Si5303   Si       0.79706    0.63127    0.14951    1.000
    Si5304   Si       0.75580    0.65490    0.20291    1.000
    Si5305   Si       0.93994    0.60217    0.16402    1.000
    N5306    N        0.94840    0.64456    0.16688    1.000
    N5307    N        0.87368    0.61242    0.20209    1.000
    Si5308   Si       0.88435    0.63159    0.24076    1.000
    N5309    N        0.90319    0.61281    0.13795    1.000
    Si5310   Si       0.86426    0.60950    0.16113    1.000
    N5311    N        0.79614    0.62125    0.27763    1.000
    Si5312   Si       0.75315    0.62281    0.27727    1.000
    Si5313   Si       0.82934    0.64206    0.29594    1.000
    N5314    N        0.83804    0.60622    0.31951    1.000
    N5315    N        0.85786    0.65286    0.26596    1.000
    N5316    N        0.91143    0.61367    0.32227    1.000
    N5317    N        0.96224    0.61618    0.27135    1.000
    Si5318   Si       0.92573    0.65031    0.34051    1.000
    N5319    N        0.95804    0.65205    0.37095    1.000
    N5320    N        0.82676    0.63709    0.37771    1.000
    Si5321   Si       0.77838    0.63966    0.46930    1.000
    N5322    N        0.78339    0.60283    0.44719    1.000
    N5323    N        0.85981    0.63294    0.48177    1.000
    N5324    N        0.96530    0.62864    0.43874    1.000
    Si5325   Si       0.94293    0.63777    0.47405    1.000
    N5326    N        0.88210    0.61690    0.41902    1.000
    Si5327   Si       0.86566    0.65040    0.39591    1.000
    N5328    N        0.91473    0.60537    0.48663    1.000
    N5329    N        0.77626    0.61679    0.58888    1.000
    N5330    N        0.85133    0.61043    0.59103    1.000
    Si5331   Si       0.83576    0.63935    0.51816    1.000
    Si5332   Si       0.75238    0.65066    0.57781    1.000
    N5333    N        0.82069    0.59902    0.53172    1.000
    Si5334   Si       0.87924    0.63736    0.57415    1.000
    N5335    N        0.91460    0.62099    0.55539    1.000
    Si5336   Si       0.95473    0.64055    0.55386    1.000
    N5337    N        0.98927    0.61625    0.55933    1.000
    Si5338   Si       0.78287    0.60317    0.73264    1.000
    Si5339   Si       0.75967    0.60155    0.62757    1.000
    Si5340   Si       0.75443    0.64970    0.68980    1.000
    Si5341   Si       0.81783    0.61183    0.66831    1.000
    N5342    N        0.74480    0.62499    0.72565    1.000
    N5343    N        0.84110    0.64864    0.65830    1.000
    N5344    N        0.77644    0.62281    0.66232    1.000
    N5345    N        0.82143    0.60426    0.71102    1.000
    N5346    N        0.90767    0.65024    0.68410    1.000
    N5347    N        0.95772    0.60279    0.67608    1.000
    Si5348   Si       0.88249    0.65048    0.64719    1.000
    Si5349   Si       0.91390    0.60638    0.68049    1.000
    N5350    N        0.89386    0.60687    0.64059    1.000
    Si5351   Si       0.81530    0.62171    0.85116    1.000
    N5352    N        0.79474    0.61584    0.77406    1.000
    N5353    N        0.77431    0.63369    0.83565    1.000
    Si5354   Si       0.77291    0.64782    0.79345    1.000
    N5355    N        0.84390    0.64682    0.83309    1.000
    Si5356   Si       0.97422    0.63777    0.83130    1.000
    Si5357   Si       0.90199    0.60559    0.75771    1.000
    N5358    N        0.91793    0.64790    0.75312    1.000
    Si5359   Si       0.84997    0.63655    0.99127    1.000
    Si5360   Si       0.77600    0.64445    0.90798    1.000
    N5361    N        0.74849    0.61154    0.90398    1.000
    N5362    N        0.81327    0.62871    0.89371    1.000
    Si5363   Si       0.75333    0.59954    0.94780    1.000
    N5364    N        0.77149    0.64616    0.95096    1.000
    N5365    N        0.85588    0.61936    0.94982    1.000
    Si5366   Si       0.82710    0.59983    0.92499    1.000
    Si5367   Si       0.89907    0.62460    0.95492    1.000
    N5368    N        0.93022    0.62951    0.88734    1.000
    N5369    N        0.93605    0.60235    0.94725    1.000
    Si5370   Si       0.81060    0.69251    0.06803    1.000
    Si5371   Si       0.75445    0.68264    0.10799    1.000
    N5372    N        0.76889    0.70360    0.07269    1.000
    N5373    N        0.83620    0.71114    0.09758    1.000
    N5374    N        0.94292    0.67163    0.04293    1.000
    Si5375   Si       0.91126    0.67426    0.07836    1.000
    N5376    N        0.94516    0.67662    0.10870    1.000
    Si5377   Si       0.97685    0.66095    0.06894    1.000
    N5378    N        0.88300    0.67325    0.11341    1.000
    N5379    N        0.89534    0.70998    0.05369    1.000
    Si5380   Si       0.78989    0.70602    0.16923    1.000
    N5381    N        0.77303    0.69566    0.20767    1.000
    Si5382   Si       0.84518    0.68248    0.13197    1.000
    N5383    N        0.78211    0.67346    0.13903    1.000
    N5384    N        0.83243    0.70855    0.16613    1.000
    N5385    N        0.91921    0.65788    0.23773    1.000
    N5386    N        0.98474    0.67957    0.24286    1.000
    Si5387   Si       0.91535    0.69211    0.21325    1.000
    N5388    N        0.87767    0.70868    0.22793    1.000
    Si5389   Si       0.91592    0.66062    0.14139    1.000
    Si5390   Si       0.97610    0.69850    0.12765    1.000
    N5391    N        0.89829    0.68773    0.17311    1.000
    N5392    N        0.80832    0.67214    0.32073    1.000
    Si5393   Si       0.79836    0.66484    0.36238    1.000
    Si5394   Si       0.85535    0.69623    0.26301    1.000
    N5395    N        0.75336    0.66176    0.37019    1.000
    Si5396   Si       0.79262    0.70915    0.30276    1.000
    N5397    N        0.81505    0.70851    0.26479    1.000
    N5398    N        0.75646    0.71236    0.27854    1.000
    N5399    N        0.94215    0.67080    0.30461    1.000
    N5400    N        0.89022    0.66967    0.36208    1.000
    Si5401   Si       0.89224    0.70975    0.34029    1.000
    Si5402   Si       0.95984    0.70863    0.31046    1.000
    N5403    N        0.87585    0.70782    0.30013    1.000
    Si5404   Si       0.95397    0.65857    0.26441    1.000
    N5405    N        0.77681    0.67396    0.43809    1.000
    Si5406   Si       0.74969    0.70777    0.45429    1.000
    N5407    N        0.85134    0.67580    0.43054    1.000
    Si5408   Si       0.81316    0.69325    0.42512    1.000
    N5409    N        0.80740    0.70113    0.38165    1.000
    Si5410   Si       0.74387    0.65919    0.41251    1.000
    N5411    N        0.75015    0.70159    0.49852    1.000
    Si5412   Si       0.97291    0.66108    0.41107    1.000
    N5413    N        0.97270    0.69885    0.43181    1.000
    N5414    N        0.91905    0.67149    0.45984    1.000
    Si5415   Si       0.93422    0.70981    0.44804    1.000
    N5416    N        0.87103    0.70430    0.49273    1.000
    Si5417   Si       0.87595    0.67140    0.46716    1.000
    N5418    N        0.77700    0.68492    0.56564    1.000
    Si5419   Si       0.78506    0.69248    0.52367    1.000
    N5420    N        0.85982    0.66310    0.54578    1.000
    Si5421   Si       0.78119    0.71014    0.59891    1.000
    N5422    N        0.79986    0.65767    0.50291    1.000
    Si5423   Si       0.92397    0.69016    0.59002    1.000
    N5424    N        0.92022    0.69389    0.54658    1.000
    Si5425   Si       0.88043    0.70075    0.53597    1.000
    Si5426   Si       0.95708    0.69865    0.51874    1.000
    N5427    N        0.95805    0.66290    0.59022    1.000
    N5428    N        0.89042    0.66685    0.60678    1.000
    N5429    N        0.95961    0.65540    0.51213    1.000
    Si5430   Si       0.81668    0.68277    0.66912    1.000
    N5431    N        0.78837    0.67641    0.70212    1.000
    Si5432   Si       0.79317    0.70322    0.73706    1.000
    N5433    N        0.79248    0.69161    0.63521    1.000
    N5434    N        0.83458    0.71383    0.74001    1.000
    Si5435   Si       0.98690    0.69861    0.67859    1.000
    N5436    N        0.98644    0.66508    0.65330    1.000
    Si5437   Si       0.92076    0.67237    0.71987    1.000
    N5438    N        0.95829    0.69095    0.71134    1.000
    N5439    N        0.89432    0.70811    0.72545    1.000
    N5440    N        0.77845    0.68705    0.77470    1.000
    Si5441   Si       0.85550    0.68759    0.83374    1.000
    N5442    N        0.74501    0.70553    0.83800    1.000
    Si5443   Si       0.75556    0.71694    0.79797    1.000
    N5444    N        0.87922    0.69004    0.79639    1.000
    Si5445   Si       0.91959    0.67363    0.78882    1.000
    Si5446   Si       0.91941    0.66541    0.86287    1.000
    N5447    N        0.94264    0.70905    0.77693    1.000
    N5448    N        0.88519    0.69560    0.86543    1.000
    N5449    N        0.98185    0.71279    0.83436    1.000
    N5450    N        0.93395    0.65263    0.82353    1.000
    Si5451   Si       0.75990    0.66653    0.98663    1.000
    N5452    N        0.76798    0.68145    0.88912    1.000
    N5453    N        0.85284    0.68258    0.98285    1.000
    N5454    N        0.78584    0.70089    0.99169    1.000
    N5455    N        0.90888    0.66419    0.94225    1.000
    Si5456   Si       0.94454    0.66033    0.91852    1.000
    N5457    N        0.97877    0.66683    0.94164    1.000
    Si5458   Si       0.89146    0.69599    0.96525    1.000
    Si5459   Si       0.98519    0.69706    0.87278    1.000
    N5460    N        0.94319    0.69476    0.88906    1.000
    Si5461   Si       0.77680    0.73881    0.04963    1.000
    N5462    N        0.74474    0.74813    0.02080    1.000
    N5463    N        0.82126    0.72434    0.03913    1.000
    Si5464   Si       0.85935    0.72954    0.06427    1.000
    N5465    N        0.86343    0.74964    0.99488    1.000
    N5466    N        0.96266    0.74331    0.02215    1.000
    Si5467   Si       0.93280    0.71149    0.02817    1.000
    N5468    N        0.77291    0.74706    0.16151    1.000
    N5469    N        0.78440    0.76467    0.22925    1.000
    Si5470   Si       0.77989    0.72285    0.24208    1.000
    N5471    N        0.88363    0.76036    0.18864    1.000
    N5472    N        0.96518    0.74139    0.13896    1.000
    Si5473   Si       0.86910    0.71986    0.18554    1.000
    Si5474   Si       0.92461    0.76420    0.20240    1.000
    Si5475   Si       0.97828    0.72126    0.23607    1.000
    N5476    N        0.94271    0.72538    0.20939    1.000
    N5477    N        0.80049    0.74458    0.32547    1.000
    Si5478   Si       0.82157    0.73743    0.36450    1.000
    N5479    N        0.86628    0.73779    0.36429    1.000
    N5480    N        0.93127    0.72943    0.33666    1.000
    N5481    N        0.96419    0.73647    0.27459    1.000
    Si5482   Si       0.94857    0.76979    0.34232    1.000
    N5483    N        0.74612    0.74847    0.44245    1.000
    Si5484   Si       0.83923    0.73280    0.48542    1.000
    N5485    N        0.81810    0.72994    0.44843    1.000
    Si5486   Si       0.82662    0.76984    0.43032    1.000
    N5487    N        0.80945    0.77052    0.38996    1.000
    N5488    N        0.90888    0.72503    0.41787    1.000
    Si5489   Si       0.89426    0.75618    0.39407    1.000
    N5490    N        0.94229    0.72673    0.48809    1.000
    Si5491   Si       0.94990    0.76888    0.48662    1.000
    Si5492   Si       0.82928    0.74706    0.55632    1.000
    N5493    N        0.81416    0.73735    0.59454    1.000
    N5494    N        0.81534    0.72385    0.52223    1.000
    N5495    N        0.74691    0.73587    0.60553    1.000
    N5496    N        0.87152    0.73516    0.56131    1.000
    Si5497   Si       0.89355    0.75354    0.59377    1.000
    N5498    N        0.92778    0.72813    0.60739    1.000
    Si5499   Si       0.96638    0.74680    0.62251    1.000
    Si5500   Si       0.83183    0.74294    0.63487    1.000
    N5501    N        0.77827    0.74243    0.72154    1.000
    Si5502   Si       0.86099    0.73103    0.70957    1.000
    N5503    N        0.80069    0.76914    0.65037    1.000
    Si5504   Si       0.77294    0.76854    0.68674    1.000
    N5505    N        0.84214    0.71904    0.67203    1.000
    N5506    N        0.86841    0.76837    0.73037    1.000
    N5507    N        0.86784    0.76408    0.62924    1.000
    N5508    N        0.96030    0.76083    0.72802    1.000
    N5509    N        0.97290    0.73870    0.66498    1.000
    Si5510   Si       0.96768    0.71959    0.74188    1.000
    N5511    N        0.78296    0.74884    0.79840    1.000
    N5512    N        0.85213    0.75054    0.79152    1.000
    Si5513   Si       0.81985    0.75071    0.82016    1.000
    Si5514   Si       0.76701    0.76477    0.76087    1.000
    N5515    N        0.82044    0.71316    0.84256    1.000
    Si5516   Si       0.78075    0.71370    0.86321    1.000
    Si5517   Si       0.95641    0.73701    0.80828    1.000
    N5518    N        0.92101    0.75274    0.82306    1.000
    N5519    N        0.98284    0.76929    0.79579    1.000
    Si5520   Si       0.86781    0.71822    0.76701    1.000
    N5521    N        0.77978    0.75269    0.88419    1.000
    N5522    N        0.82105    0.74531    0.95345    1.000
    Si5523   Si       0.75125    0.72667    0.98338    1.000
    N5524    N        0.75186    0.74608    0.94513    1.000
    Si5525   Si       0.79009    0.75884    0.92763    1.000
    Si5526   Si       0.82771    0.71860    0.99203    1.000
    Si5527   Si       0.86276    0.75799    0.95197    1.000
    N5528    N        0.95473    0.77143    0.94871    1.000
    Si5529   Si       0.95806    0.73991    0.97645    1.000
    Si5530   Si       0.90723    0.72137    0.89142    1.000
    N5531    N        0.88555    0.72520    0.93264    1.000
    N5532    N        0.91803    0.76304    0.88904    1.000
    N5533    N        0.92601    0.71205    0.98523    1.000
    N5534    N        0.82841    0.80731    0.02817    1.000
    N5535    N        0.84034    0.81082    0.10330    1.000
    Si5536   Si       0.75311    0.79703    0.09019    1.000
    Si5537   Si       0.82488    0.79000    0.06692    1.000
    N5538    N        0.77471    0.82886    0.11111    1.000
    Si5539   Si       0.86661    0.78390    0.02021    1.000
    N5540    N        0.78503    0.77232    0.07366    1.000
    N5541    N        0.91420    0.78442    0.11372    1.000
    N5542    N        0.96198    0.80628    0.05000    1.000
    N5543    N        0.89631    0.81498    0.01103    1.000
    Si5544   Si       0.88131    0.80252    0.09510    1.000
    N5545    N        0.86473    0.77148    0.06344    1.000
    Si5546   Si       0.92361    0.82760    0.04284    1.000
    Si5547   Si       0.98876    0.77287    0.04182    1.000
    N5548    N        0.74660    0.80924    0.18937    1.000
    N5549    N        0.81857    0.79533    0.17020    1.000
    Si5550   Si       0.81138    0.82239    0.13496    1.000
    Si5551   Si       0.78034    0.78016    0.18721    1.000
    Si5552   Si       0.85897    0.79477    0.18506    1.000
    N5553    N        0.85977    0.81129    0.22581    1.000
    Si5554   Si       0.90196    0.82067    0.23937    1.000
    N5555    N        0.92625    0.78332    0.24031    1.000
    N5556    N        0.98485    0.80678    0.12479    1.000
    N5557    N        0.94072    0.79435    0.17528    1.000
    N5558    N        0.87778    0.82804    0.16239    1.000
    Si5559   Si       0.95139    0.78210    0.13396    1.000
    N5560    N        0.82391    0.80120    0.28619    1.000
    N5561    N        0.78632    0.81406    0.34807    1.000
    Si5562   Si       0.79516    0.78610    0.31603    1.000
    N5563    N        0.76210    0.79502    0.28672    1.000
    Si5564   Si       0.79071    0.80014    0.25629    1.000
    Si5565   Si       0.74554    0.81818    0.35765    1.000
    N5566    N        0.94623    0.79528    0.30819    1.000
    Si5567   Si       0.95824    0.77986    0.26908    1.000
    N5568    N        0.89438    0.82940    0.27992    1.000
    Si5569   Si       0.79388    0.81287    0.39722    1.000
    N5570    N        0.81031    0.80813    0.44019    1.000
    N5571    N        0.74696    0.81246    0.40263    1.000
    N5572    N        0.85292    0.77513    0.48151    1.000
    N5573    N        0.86837    0.77907    0.42148    1.000
    N5574    N        0.92990    0.78147    0.45086    1.000
    Si5575   Si       0.88674    0.79341    0.45705    1.000
    Si5576   Si       0.94408    0.79877    0.41446    1.000
    N5577    N        0.92922    0.77807    0.37969    1.000
    N5578    N        0.81394    0.78696    0.54215    1.000
    Si5579   Si       0.78140    0.81231    0.55420    1.000
    N5580    N        0.76839    0.80362    0.59661    1.000
    Si5581   Si       0.83879    0.80317    0.51180    1.000
    N5582    N        0.75493    0.82468    0.52130    1.000
    Si5583   Si       0.91122    0.80869    0.54517    1.000
    N5584    N        0.90499    0.79250    0.58453    1.000
    N5585    N        0.96586    0.79134    0.61114    1.000
    N5586    N        0.87827    0.81884    0.51991    1.000
    N5587    N        0.94171    0.78989    0.52267    1.000
    Si5588   Si       0.93260    0.82576    0.60432    1.000
    Si5589   Si       0.77986    0.82132    0.73770    1.000
    Si5590   Si       0.81647    0.80880    0.66796    1.000
    N5591    N        0.78466    0.80892    0.69748    1.000
    N5592    N        0.85791    0.80666    0.67911    1.000
    Si5593   Si       0.76074    0.77088    0.62368    1.000
    N5594    N        0.98986    0.81072    0.68612    1.000
    N5595    N        0.90304    0.83259    0.73432    1.000
    Si5596   Si       0.88927    0.80071    0.70946    1.000
    N5597    N        0.91979    0.78749    0.67841    1.000
    Si5598   Si       0.88945    0.79797    0.64821    1.000
    Si5599   Si       0.96037    0.77488    0.68845    1.000
    N5600    N        0.82301    0.78574    0.84429    1.000
    Si5601   Si       0.84684    0.78379    0.76584    1.000
    Si5602   Si       0.85087    0.81866    0.83203    1.000
    N5603    N        0.80412    0.79180    0.75915    1.000
    N5604    N        0.76854    0.82187    0.85621    1.000
    N5605    N        0.85693    0.81964    0.78847    1.000
    Si5606   Si       0.79530    0.79367    0.87574    1.000
    N5607    N        0.74230    0.79982    0.74959    1.000
    N5608    N        0.95735    0.80670    0.84666    1.000
    Si5609   Si       0.92044    0.78457    0.85258    1.000
    N5610    N        0.88789    0.81300    0.85201    1.000
    N5611    N        0.96796    0.82302    0.77181    1.000
    Si5612   Si       0.98251    0.80865    0.81079    1.000
    Si5613   Si       0.98526    0.78579    0.75542    1.000
    N5614    N        0.80317    0.79891    0.91733    1.000
    Si5615   Si       0.88520    0.82898    0.97189    1.000
    Si5616   Si       0.92413    0.78677    0.92283    1.000
    N5617    N        0.88713    0.79455    0.94519    1.000
    Si5618   Si       0.97106    0.82508    0.88337    1.000
    N5619    N        0.93320    0.82571    0.90583    1.000
    Si5620   Si       0.75570    0.86783    0.10084    1.000
    N5621    N        0.80935    0.87944    0.02853    1.000
    Si5622   Si       0.81616    0.84166    0.00534    1.000
    N5623    N        0.74436    0.87299    0.05819    1.000
    N5624    N        0.94379    0.86502    0.03070    1.000
    Si5625   Si       0.90838    0.87079    0.10499    1.000
    Si5626   Si       0.98196    0.84737    0.04366    1.000
    N5627    N        0.90038    0.83701    0.07878    1.000
    Si5628   Si       0.93121    0.88600    0.99585    1.000
    N5629    N        0.75653    0.88429    0.18475    1.000
    N5630    N        0.81498    0.86096    0.15366    1.000
    Si5631   Si       0.83379    0.84913    0.23028    1.000
    Si5632   Si       0.75504    0.84844    0.20894    1.000
    N5633    N        0.85685    0.87534    0.20591    1.000
    Si5634   Si       0.85702    0.86576    0.16359    1.000
    N5635    N        0.79135    0.83599    0.23148    1.000
    N5636    N        0.87547    0.88688    0.13022    1.000
    Si5637   Si       0.97828    0.85031    0.12342    1.000
    Si5638   Si       0.93502    0.87951    0.24150    1.000
    N5639    N        0.92319    0.84778    0.21236    1.000
    Si5640   Si       0.92159    0.83272    0.17036    1.000
    N5641    N        0.93606    0.85186    0.13477    1.000
    N5642    N        0.83816    0.86740    0.26806    1.000
    Si5643   Si       0.81082    0.84992    0.34630    1.000
    N5644    N        0.85275    0.85078    0.33395    1.000
    N5645    N        0.79081    0.87885    0.32112    1.000
    Si5646   Si       0.85450    0.83436    0.29192    1.000
    Si5647   Si       0.75323    0.89209    0.33308    1.000
    N5648    N        0.95580    0.85541    0.27195    1.000
    Si5649   Si       0.88661    0.87348    0.35125    1.000
    N5650    N        0.92312    0.85274    0.34060    1.000
    Si5651   Si       0.93227    0.83646    0.30226    1.000
    N5652    N        0.83603    0.88002    0.44808    1.000
    N5653    N        0.80888    0.85402    0.39103    1.000
    Si5654   Si       0.80685    0.84943    0.45371    1.000
    N5655    N        0.76418    0.85449    0.45571    1.000
    Si5656   Si       0.83700    0.88599    0.40606    1.000
    N5657    N        0.88017    0.87494    0.39521    1.000
    N5658    N        0.88831    0.83783    0.45491    1.000
    Si5659   Si       0.95251    0.85773    0.37274    1.000
    Si5660   Si       0.90706    0.86480    0.42745    1.000
    N5661    N        0.93635    0.83966    0.40767    1.000
    N5662    N        0.80005    0.84814    0.56580    1.000
    Si5663   Si       0.78279    0.84794    0.60542    1.000
    Si5664   Si       0.80910    0.87279    0.53048    1.000
    N5665    N        0.74718    0.87008    0.60354    1.000
    Si5666   Si       0.74979    0.86140    0.49604    1.000
    N5667    N        0.82363    0.84133    0.49844    1.000
    N5668    N        0.93087    0.84334    0.56384    1.000
    N5669    N        0.96063    0.87139    0.50580    1.000
    Si5670   Si       0.96448    0.86303    0.54735    1.000
    N5671    N        0.88562    0.88739    0.50399    1.000
    Si5672   Si       0.86591    0.85311    0.48715    1.000
    N5673    N        0.74513    0.86834    0.66966    1.000
    N5674    N        0.85391    0.87353    0.67948    1.000
    N5675    N        0.80556    0.84185    0.64188    1.000
    N5676    N        0.77435    0.86393    0.73759    1.000
    Si5677   Si       0.81964    0.87876    0.65594    1.000
    N5678    N        0.84606    0.87643    0.74986    1.000
    N5679    N        0.96286    0.85640    0.62354    1.000
    Si5680   Si       0.89039    0.87343    0.65565    1.000
    N5681    N        0.96667    0.87982    0.73721    1.000
    N5682    N        0.89978    0.83764    0.63254    1.000
    Si5683   Si       0.78606    0.86154    0.84336    1.000
    N5684    N        0.83005    0.85086    0.85117    1.000
    N5685    N        0.78500    0.87673    0.80240    1.000
    Si5686   Si       0.75018    0.87889    0.77059    1.000
    N5687    N        0.90633    0.87064    0.78366    1.000
    N5688    N        0.93172    0.87118    0.85524    1.000
    Si5689   Si       0.87495    0.84931    0.76339    1.000
    Si5690   Si       0.93742    0.85156    0.75569    1.000
    N5691    N        0.74284    0.87289    0.93333    1.000
    N5692    N        0.81084    0.86673    0.91567    1.000
    N5693    N        0.78172    0.83865    0.97772    1.000
    Si5694   Si       0.84169    0.87548    0.88509    1.000
    Si5695   Si       0.74583    0.86497    0.97681    1.000
    N5696    N        0.84289    0.83860    0.97161    1.000
    Si5697   Si       0.80988    0.83374    0.94282    1.000
    N5698    N        0.90623    0.86630    0.96743    1.000
    Si5699   Si       0.90616    0.84469    0.87774    1.000
    N5700    N        0.87998    0.86954    0.90337    1.000
    N5701    N        0.79090    0.93482    0.05420    1.000
    Si5702   Si       0.82990    0.91744    0.03919    1.000
    Si5703   Si       0.79020    0.93724    0.09918    1.000
    Si5704   Si       0.77003    0.89878    0.03452    1.000
    N5705    N        0.83951    0.94358    0.00789    1.000
    N5706    N        0.77394    0.90273    0.11904    1.000
    N5707    N        0.74797    0.90293    0.99873    1.000
    N5708    N        0.86176    0.91280    0.06666    1.000
    Si5709   Si       0.86654    0.92338    0.10786    1.000
    N5710    N        0.95899    0.94475    0.04727    1.000
    N5711    N        0.92269    0.90773    0.08868    1.000
    N5712    N        0.90480    0.92202    0.00760    1.000
    Si5713   Si       0.91688    0.93182    0.04983    1.000
    Si5714   Si       0.93403    0.94140    0.11499    1.000
    Si5715   Si       0.98583    0.93118    0.01652    1.000
    N5716    N        0.82768    0.94187    0.11910    1.000
    N5717    N        0.80758    0.92767    0.18014    1.000
    Si5718   Si       0.80704    0.93620    0.22317    1.000
    N5719    N        0.84908    0.94428    0.23683    1.000
    Si5720   Si       0.78762    0.89503    0.15875    1.000
    Si5721   Si       0.87449    0.90845    0.22913    1.000
    N5722    N        0.95989    0.90884    0.22170    1.000
    N5723    N        0.89953    0.93349    0.20252    1.000
    N5724    N        0.95377    0.92607    0.15043    1.000
    N5725    N        0.83128    0.92855    0.30176    1.000
    Si5726   Si       0.84728    0.93100    0.34275    1.000
    Si5727   Si       0.74369    0.90151    0.25578    1.000
    Si5728   Si       0.81115    0.89538    0.28681    1.000
    N5729    N        0.78622    0.90575    0.25079    1.000
    N5730    N        0.75752    0.91839    0.36778    1.000
    N5731    N        0.88696    0.91235    0.33120    1.000
    Si5732   Si       0.90964    0.92718    0.29685    1.000
    N5733    N        0.90219    0.89959    0.26275    1.000
    N5734    N        0.95178    0.93623    0.28531    1.000
    Si5735   Si       0.98552    0.94364    0.31325    1.000
    Si5736   Si       0.96729    0.94415    0.24640    1.000
    N5737    N        0.82545    0.92160    0.38095    1.000
    Si5738   Si       0.78363    0.94102    0.39874    1.000
    Si5739   Si       0.77746    0.92755    0.48419    1.000
    N5740    N        0.78973    0.93307    0.44119    1.000
    N5741    N        0.98120    0.94646    0.41398    1.000
    N5742    N        0.93200    0.89368    0.45026    1.000
    Si5743   Si       0.96799    0.90667    0.42677    1.000
    Si5744   Si       0.92814    0.89692    0.49367    1.000
    Si5745   Si       0.95118    0.94162    0.38190    1.000
    N5746    N        0.95556    0.89879    0.38472    1.000
    N5747    N        0.77610    0.93211    0.57570    1.000
    Si5748   Si       0.81800    0.92164    0.58345    1.000
    N5749    N        0.83663    0.90179    0.54832    1.000
    N5750    N        0.81274    0.89695    0.61871    1.000
    Si5751   Si       0.74130    0.91002    0.58971    1.000
    N5752    N        0.77672    0.89219    0.51026    1.000
    Si5753   Si       0.87469    0.91621    0.53275    1.000
    Si5754   Si       0.94067    0.93636    0.55385    1.000
    N5755    N        0.89960    0.92903    0.56653    1.000
    N5756    N        0.96402    0.90217    0.56807    1.000
    N5757    N        0.93106    0.93618    0.51091    1.000
    Si5758   Si       0.96962    0.89675    0.61089    1.000
    Si5759   Si       0.88175    0.94365    0.60188    1.000
    Si5760   Si       0.83791    0.89780    0.71225    1.000
    N5761    N        0.85440    0.93596    0.72150    1.000
    N5762    N        0.79990    0.90512    0.68994    1.000
    N5763    N        0.74716    0.93624    0.69897    1.000
    Si5764   Si       0.78741    0.94760    0.68474    1.000
    Si5765   Si       0.76011    0.88918    0.70352    1.000
    N5766    N        0.88086    0.91448    0.63498    1.000
    N5767    N        0.97652    0.93916    0.69306    1.000
    N5768    N        0.94641    0.93029    0.62616    1.000
    Si5769   Si       0.91471    0.92891    0.65807    1.000
    N5770    N        0.92612    0.89022    0.67656    1.000
    Si5771   Si       0.96530    0.89616    0.69709    1.000
    N5772    N        0.85035    0.90734    0.80796    1.000
    Si5773   Si       0.76540    0.93359    0.85564    1.000
    Si5774   Si       0.83745    0.93451    0.83804    1.000
    N5775    N        0.80333    0.93032    0.76297    1.000
    N5776    N        0.79618    0.93981    0.82566    1.000
    Si5777   Si       0.77133    0.94313    0.79076    1.000
    N5778    N        0.77100    0.89258    0.86814    1.000
    Si5779   Si       0.81910    0.89332    0.78152    1.000
    Si5780   Si       0.94579    0.90795    0.84073    1.000
    N5781    N        0.97236    0.92227    0.80785    1.000
    N5782    N        0.91182    0.92866    0.82462    1.000
    Si5783   Si       0.89185    0.91101    0.79015    1.000
    N5784    N        0.91164    0.93728    0.76182    1.000
    N5785    N        0.83701    0.91775    0.87831    1.000
    Si5786   Si       0.83147    0.93810    0.91806    1.000
    N5787    N        0.78745    0.93035    0.92431    1.000
    N5788    N        0.86160    0.92300    0.94562    1.000
    Si5789   Si       0.77523    0.88988    0.91149    1.000
    Si5790   Si       0.87500    0.94038    0.98282    1.000
    N5791    N        0.96153    0.92650    0.87544    1.000
    Si5792   Si       0.89603    0.89396    0.93561    1.000
    N5793    N        0.93069    0.92198    0.93579    1.000
    N5794    N        0.96833    0.90427    0.98635    1.000
    Si5795   Si       0.97262    0.93074    0.95195    1.000
    N5796    N        0.76909    0.97495    0.09949    1.000
    Si5797   Si       0.84146    0.98597    0.00740    1.000
    Si5798   Si       0.76384    0.96994    0.05076    1.000
    N5799    N        0.83976    0.99764    0.04916    1.000
    N5800    N        0.76000    0.96801    0.00315    1.000
    N5801    N        0.90287    0.97135    0.05865    1.000
    Si5802   Si       0.97262    0.98239    0.06642    1.000
    N5803    N        0.95723    0.97945    0.10828    1.000
    Si5804   Si       0.87711    0.00360    0.06965    1.000
    N5805    N        0.85704    0.98525    0.17536    1.000
    Si5806   Si       0.75681    0.98172    0.18947    1.000
    N5807    N        0.78813    0.97529    0.22064    1.000
    N5808    N        0.79571    0.99775    0.15943    1.000
    Si5809   Si       0.82167    0.96230    0.15702    1.000
    N5810    N        0.74025    0.95257    0.16216    1.000
    N5811    N        0.92578    0.98843    0.16636    1.000
    N5812    N        0.89993    0.99974    0.23053    1.000
    N5813    N        0.89299    0.95159    0.12386    1.000
    Si5814   Si       0.88872    0.98977    0.14378    1.000
    Si5815   Si       0.87485    0.96982    0.21164    1.000
    N5816    N        0.96052    0.97258    0.21523    1.000
    Si5817   Si       0.93695    0.94751    0.18632    1.000
    N5818    N        0.76761    0.97434    0.28513    1.000
    N5819    N        0.84643    0.97466    0.34453    1.000
    Si5820   Si       0.84656    0.96035    0.27854    1.000
    N5821    N        0.82892    0.99925    0.27102    1.000
    Si5822   Si       0.78737    0.00096    0.25715    1.000
    N5823    N        0.88839    0.96774    0.29028    1.000
    N5824    N        0.96082    0.96031    0.34523    1.000
    Si5825   Si       0.94621    0.00151    0.33505    1.000
    Si5826   Si       0.90571    0.00210    0.27312    1.000
    N5827    N        0.90583    0.00540    0.35237    1.000
    N5828    N        0.82549    0.00015    0.47225    1.000
    Si5829   Si       0.83124    0.00132    0.37638    1.000
    N5830    N        0.79357    0.98561    0.38839    1.000
    N5831    N        0.74305    0.96248    0.40880    1.000
    N5832    N        0.75218    0.01034    0.44964    1.000
    Si5833   Si       0.75793    0.00706    0.40446    1.000
    Si5834   Si       0.94137    0.00694    0.45319    1.000
    N5835    N        0.86147    0.00347    0.40826    1.000
    Si5836   Si       0.90149    0.99254    0.39467    1.000
    N5837    N        0.91114    0.95039    0.39237    1.000
    N5838    N        0.97194    0.98794    0.47524    1.000
    N5839    N        0.89964    0.99124    0.46399    1.000
    Si5840   Si       0.77319    0.96710    0.55091    1.000
    Si5841   Si       0.82968    0.97616    0.50727    1.000
    N5842    N        0.78514    0.99816    0.57806    1.000
    Si5843   Si       0.82915    0.99944    0.59140    1.000
    N5844    N        0.84170    0.95731    0.59160    1.000
    N5845    N        0.79348    0.95695    0.51231    1.000
    N5846    N        0.83121    0.00692    0.53958    1.000
    Si5847   Si       0.77452    0.00047    0.62325    1.000
    N5848    N        0.95357    0.97515    0.56957    1.000
    Si5849   Si       0.94946    0.97232    0.61257    1.000
    Si5850   Si       0.90649    0.97118    0.50329    1.000
    N5851    N        0.90451    0.97701    0.61666    1.000
    N5852    N        0.90699    0.00699    0.53175    1.000
    N5853    N        0.86693    0.95386    0.51084    1.000
    N5854    N        0.80050    0.98112    0.70777    1.000
    N5855    N        0.77070    0.96545    0.64875    1.000
    Si5856   Si       0.82331    0.96076    0.73991    1.000
    Si5857   Si       0.90871    0.00814    0.68856    1.000
    N5858    N        0.90588    0.96317    0.68535    1.000
    N5859    N        0.98524    0.98522    0.63418    1.000
    N5860    N        0.89646    0.99853    0.73463    1.000
    Si5861   Si       0.89327    0.95371    0.72624    1.000
    N5862    N        0.75946    0.98411    0.78404    1.000
    N5863    N        0.83402    0.99257    0.76533    1.000
    N5864    N        0.85975    0.97100    0.83607    1.000
    Si5865   Si       0.77415    0.00849    0.85306    1.000
    Si5866   Si       0.90194    0.96752    0.84057    1.000
    N5867    N        0.92748    0.98821    0.81424    1.000
    N5868    N        0.96511    0.97698    0.75780    1.000
    Si5869   Si       0.94333    0.95188    0.79084    1.000
    N5870    N        0.76597    0.97102    0.87621    1.000
    Si5871   Si       0.76166    0.96537    0.92011    1.000
    N5872    N        0.83939    0.97994    0.91355    1.000
    N5873    N        0.77796    0.99837    0.94124    1.000
    Si5874   Si       0.93998    0.95102    0.90289    1.000
    N5875    N        0.87567    0.98404    0.98029    1.000
    N5876    N        0.90702    0.96948    0.88354    1.000
    Si5877   Si       0.87612    0.99528    0.89740    1.000
    N5878    N        0.96584    0.97343    0.93049    1.000
    Si5879   Si       0.96812    0.99450    0.97018    1.000
