# CIF file generated by openbabel 3.1.1, see https://openbabel.org
data_I
_chemical_name_common '3.01-5.aims'
_cell_length_a 39.8995
_cell_length_b 39.8995
_cell_length_c 39.8995
_cell_angle_alpha 90
_cell_angle_beta 90
_cell_angle_gamma 90
loop_
    _atom_site_label
    _atom_site_type_symbol
    _atom_site_fract_x
    _atom_site_fract_y
    _atom_site_fract_z
    _atom_site_occupancy
    N0       N        0.05438    0.09353    0.03341    1.000
    Si1      Si       0.09416    0.10126    0.04309    1.000
    N2       N        0.01775    0.01988    0.01575    1.000
    N3       N        0.11939    0.07060    0.02268    1.000
    Si4      Si       0.16115    0.05398    0.03079    1.000
    N5       N        0.19856    0.06986    0.01274    1.000
    Si6      Si       0.23110    0.09910    0.01025    1.000
    N7       N        0.16254    0.01836    0.00504    1.000
    Si8      Si       0.08877    0.23120    0.02878    1.000
    N9       N        0.00821    0.15597    0.01648    1.000
    N10      N        0.00623    0.21834    0.00706    1.000
    N11      N        0.07257    0.19732    0.00617    1.000
    Si12     Si       0.02223    0.25494    0.02612    1.000
    N13      N        0.05395    0.24327    0.05400    1.000
    N14      N        0.11101    0.14229    0.03342    1.000
    N15      N        0.17127    0.25429    0.03456    1.000
    N16      N        0.17308    0.18507    0.02376    1.000
    N17      N        0.22004    0.14053    0.00537    1.000
    Si18     Si       0.19785    0.15456    0.03963    1.000
    Si19     Si       0.16273    0.21617    0.05453    1.000
    N20      N        0.09741    0.11370    0.08646    1.000
    N21      N        0.04008    0.04677    0.09120    1.000
    Si22     Si       0.02872    0.08631    0.07051    1.000
    N23      N        0.03125    0.12032    0.09822    1.000
    Si24     Si       0.98939    0.12793    0.09963    1.000
    N25      N        0.10271    0.04290    0.11287    1.000
    Si26     Si       0.19663    0.02179    0.08927    1.000
    Si27     Si       0.17509    0.08985    0.09183    1.000
    N28      N        0.16404    0.04917    0.07331    1.000
    Si29     Si       0.13846    0.02245    0.09849    1.000
    N30      N        0.21522    0.09500    0.10504    1.000
    N31      N        0.17115    0.12549    0.06280    1.000
    N32      N        0.23170    0.03943    0.06955    1.000
    Si33     Si       0.06619    0.14358    0.10159    1.000
    N34      N        0.06862    0.18422    0.08590    1.000
    Si35     Si       0.03853    0.21486    0.08285    1.000
    N36      N        0.99761    0.20318    0.07100    1.000
    Si37     Si       0.10684    0.20319    0.09475    1.000
    N38      N        0.23383    0.17035    0.06024    1.000
    Si39     Si       0.23596    0.20941    0.07866    1.000
    N40      N        0.13806    0.17315    0.10241    1.000
    Si41     Si       0.13212    0.14055    0.07466    1.000
    N42      N        0.19125    0.21297    0.08881    1.000
    N43      N        0.12078    0.21910    0.05795    1.000
    N44      N        0.08096    0.09393    0.14869    1.000
    Si45     Si       0.06244    0.03220    0.12728    1.000
    N46      N        0.05126    0.03929    0.16867    1.000
    Si47     Si       0.10850    0.08433    0.11627    1.000
    N48      N        0.17442    0.01871    0.12656    1.000
    Si49     Si       0.22700    0.09899    0.14786    1.000
    Si50     Si       0.16307    0.12857    0.15517    1.000
    N51      N        0.14784    0.10143    0.12485    1.000
    Si52     Si       0.09074    0.13212    0.16902    1.000
    N53      N        0.07371    0.16234    0.14299    1.000
    Si54     Si       0.06989    0.20570    0.14736    1.000
    N55      N        0.03916    0.22721    0.12573    1.000
    Si56     Si       0.00816    0.24974    0.14848    1.000
    N57      N        0.10786    0.22317    0.13347    1.000
    Si58     Si       0.22641    0.16580    0.17019    1.000
    Si59     Si       0.16989    0.19525    0.12296    1.000
    N60      N        0.17304    0.22676    0.15419    1.000
    Si61     Si       0.21086    0.24148    0.16575    1.000
    Si62     Si       0.13679    0.25095    0.15321    1.000
    N63      N        0.18820    0.16373    0.14828    1.000
    N64      N        0.00970    0.08632    0.18953    1.000
    N65      N        0.01245    0.01414    0.22380    1.000
    Si66     Si       0.99658    0.12706    0.19920    1.000
    N67      N        0.06535    0.12194    0.20235    1.000
    Si68     Si       0.05001    0.08263    0.17643    1.000
    Si69     Si       0.99247    0.05177    0.20834    1.000
    N70      N        0.09061    0.00693    0.21779    1.000
    Si71     Si       0.05279    0.00888    0.19907    1.000
    N72      N        0.20398    0.04722    0.21089    1.000
    Si73     Si       0.21254    0.08944    0.21353    1.000
    Si74     Si       0.17362    0.02274    0.22881    1.000
    Si75     Si       0.23594    0.03097    0.18600    1.000
    N76      N        0.19489    0.10690    0.17667    1.000
    N77      N        0.11091    0.25949    0.18683    1.000
    N78      N        0.00391    0.16411    0.17938    1.000
    Si79     Si       0.02105    0.19922    0.19875    1.000
    N80      N        0.06325    0.20994    0.19118    1.000
    N81      N        0.99907    0.23407    0.18719    1.000
    Si82     Si       0.09208    0.22971    0.21532    1.000
    N83      N        0.22021    0.24957    0.20926    1.000
    N84      N        0.22935    0.16371    0.21255    1.000
    N85      N        0.13116    0.14249    0.18151    1.000
    Si86     Si       0.13427    0.15651    0.22267    1.000
    N87      N        0.11552    0.19670    0.23280    1.000
    Si88     Si       0.10179    0.04061    0.24583    1.000
    Si89     Si       0.07621    0.11362    0.24250    1.000
    N90      N        0.07085    0.07141    0.24888    1.000
    Si91     Si       0.99314    0.02536    0.26577    1.000
    Si92     Si       0.06217    0.05876    0.28970    1.000
    N93      N        0.09670    0.03181    0.28968    1.000
    N94      N        0.99024    0.12451    0.24216    1.000
    N95      N        0.12011    0.11987    0.24445    1.000
    Si96     Si       0.15036    0.09134    0.25686    1.000
    N97      N        0.19162    0.10778    0.24683    1.000
    N98      N        0.14303    0.05153    0.23975    1.000
    N99      N        0.23416    0.05750    0.27164    1.000
    Si100    Si       0.22102    0.01912    0.28955    1.000
    N101     N        0.05448    0.13486    0.27054    1.000
    N102     N        0.01367    0.25827    0.26764    1.000
    N103     N        0.01264    0.19123    0.24199    1.000
    Si104    Si       0.01498    0.15223    0.26306    1.000
    N105     N        0.08534    0.25797    0.24880    1.000
    Si106    Si       0.98784    0.22375    0.25937    1.000
    Si107    Si       0.15030    0.20405    0.25962    1.000
    Si108    Si       0.20785    0.14952    0.24706    1.000
    N109     N        0.17103    0.17037    0.24115    1.000
    N110     N        0.15600    0.24682    0.25207    1.000
    Si111    Si       0.00143    0.05934    0.33386    1.000
    N112     N        0.06351    0.08933    0.31773    1.000
    Si113    Si       0.11204    0.02073    0.32804    1.000
    N114     N        0.99773    0.10011    0.34651    1.000
    N115     N        0.02107    0.04257    0.29727    1.000
    N116     N        0.11924    0.12543    0.33020    1.000
    Si117    Si       0.14452    0.08992    0.33704    1.000
    N118     N        0.20378    0.04332    0.32294    1.000
    N119     N        0.21918    0.11254    0.31986    1.000
    N120     N        0.16039    0.08374    0.29808    1.000
    Si121    Si       0.20389    0.07963    0.29730    1.000
    N122     N        0.13050    0.05030    0.35114    1.000
    Si123    Si       0.07771    0.13326    0.31025    1.000
    N124     N        0.04282    0.21526    0.31997    1.000
    Si125    Si       0.00871    0.18894    0.32661    1.000
    Si126    Si       0.08473    0.20959    0.31521    1.000
    N127     N        0.99875    0.15358    0.30306    1.000
    N128     N        0.10599    0.24774    0.31072    1.000
    Si129    Si       0.02066    0.25250    0.31168    1.000
    N130     N        0.05383    0.15091    0.34610    1.000
    N131     N        0.09686    0.17281    0.29717    1.000
    N132     N        0.16181    0.19181    0.29932    1.000
    N133     N        0.22329    0.17173    0.33568    1.000
    Si134    Si       0.13325    0.16758    0.32559    1.000
    Si135    Si       0.18795    0.20223    0.33129    1.000
    N136     N        0.22326    0.22909    0.31810    1.000
    N137     N        0.01900    0.03965    0.36720    1.000
    N138     N        0.05873    0.09437    0.39189    1.000
    Si139    Si       0.03188    0.11779    0.36913    1.000
    Si140    Si       0.03386    0.06077    0.40314    1.000
    Si141    Si       0.14425    0.03917    0.39070    1.000
    N142     N        0.18675    0.02820    0.38882    1.000
    N143     N        0.17326    0.10351    0.36886    1.000
    Si144    Si       0.21226    0.01791    0.35610    1.000
    N145     N        0.01243    0.13854    0.40315    1.000
    Si146    Si       0.00952    0.18229    0.40447    1.000
    N147     N        0.10366    0.14814    0.39933    1.000
    Si148    Si       0.07782    0.17274    0.37709    1.000
    N149     N        0.04955    0.19664    0.39859    1.000
    N150     N        0.99103    0.19044    0.36579    1.000
    N151     N        0.10568    0.19587    0.35245    1.000
    N152     N        0.16533    0.16727    0.35787    1.000
    N153     N        0.22209    0.13789    0.39291    1.000
    Si154    Si       0.12793    0.22843    0.36684    1.000
    Si155    Si       0.20051    0.13728    0.35288    1.000
    Si156    Si       0.18376    0.23263    0.39429    1.000
    N157     N        0.16655    0.23363    0.35247    1.000
    Si158    Si       0.14500    0.16535    0.39638    1.000
    N159     N        0.21932    0.21042    0.39051    1.000
    N160     N        0.14605    0.20941    0.40522    1.000
    Si161    Si       0.00179    0.11736    0.43840    1.000
    N162     N        0.00462    0.07425    0.43135    1.000
    N163     N        0.08937    0.10084    0.45341    1.000
    N164     N        0.06082    0.02784    0.41246    1.000
    Si165    Si       0.09784    0.10726    0.41060    1.000
    Si166    Si       0.11810    0.06598    0.45716    1.000
    Si167    Si       0.20568    0.03333    0.42714    1.000
    N168     N        0.20584    0.07876    0.42926    1.000
    N169     N        0.13361    0.07569    0.41501    1.000
    Si170    Si       0.17145    0.09922    0.41208    1.000
    N171     N        0.99648    0.18599    0.44629    1.000
    Si172    Si       0.14121    0.22804    0.44325    1.000
    N173     N        0.18385    0.24224    0.44818    1.000
    N174     N        0.16088    0.14018    0.42788    1.000
    Si175    Si       0.16465    0.16491    0.46430    1.000
    N176     N        0.20370    0.17940    0.45063    1.000
    Si177    Si       0.22710    0.17580    0.41454    1.000
    Si178    Si       0.06453    0.11236    0.48714    1.000
    N179     N        0.05407    0.07958    0.51278    1.000
    Si180    Si       0.07360    0.03756    0.51302    1.000
    N181     N        0.09287    0.03458    0.47348    1.000
    Si182    Si       0.99982    0.02206    0.51800    1.000
    N183     N        0.21001    0.11308    0.49842    1.000
    Si184    Si       0.17723    0.03688    0.48943    1.000
    N185     N        0.22223    0.04768    0.48933    1.000
    Si186    Si       0.16806    0.10249    0.50724    1.000
    N187     N        0.15603    0.07212    0.47807    1.000
    N188     N        0.15674    0.01810    0.52196    1.000
    Si189    Si       0.22759    0.08653    0.47021    1.000
    N190     N        0.02827    0.13117    0.47196    1.000
    N191     N        0.08710    0.14328    0.50834    1.000
    N192     N        0.01318    0.24388    0.49003    1.000
    Si193    Si       0.02167    0.17586    0.47822    1.000
    Si194    Si       0.09653    0.18255    0.48929    1.000
    N195     N        0.00898    0.18140    0.52027    1.000
    Si196    Si       0.05350    0.24138    0.47482    1.000
    N197     N        0.05949    0.19868    0.47311    1.000
    Si198    Si       0.99063    0.22069    0.52065    1.000
    N199     N        0.20956    0.25425    0.52105    1.000
    Si200    Si       0.20760    0.21500    0.47474    1.000
    N201     N        0.20308    0.19156    0.51439    1.000
    Si202    Si       0.21723    0.15083    0.52203    1.000
    N203     N        0.15566    0.14307    0.50008    1.000
    N204     N        0.13126    0.19446    0.46706    1.000
    N205     N        0.09813    0.04023    0.55151    1.000
    Si206    Si       0.02603    0.08650    0.54461    1.000
    N207     N        0.00126    0.12100    0.55081    1.000
    N208     N        0.04903    0.08342    0.58263    1.000
    N209     N        0.99072    0.06347    0.53153    1.000
    Si210    Si       0.16050    0.12065    0.57494    1.000
    Si211    Si       0.14197    0.04439    0.55224    1.000
    N212     N        0.15393    0.08760    0.54607    1.000
    N213     N        0.22822    0.02815    0.55818    1.000
    N214     N        0.05722    0.15278    0.56989    1.000
    Si215    Si       0.01454    0.16277    0.55976    1.000
    Si216    Si       0.09419    0.16078    0.54776    1.000
    N217     N        0.09066    0.24975    0.56781    1.000
    N218     N        0.99432    0.24418    0.55682    1.000
    N219     N        0.10006    0.19963    0.52917    1.000
    N220     N        0.21645    0.21612    0.58286    1.000
    N221     N        0.20233    0.13488    0.56106    1.000
    Si222    Si       0.19316    0.22237    0.54558    1.000
    N223     N        0.15262    0.22069    0.56136    1.000
    N224     N        0.12875    0.15112    0.57017    1.000
    Si225    Si       0.12016    0.23886    0.53905    1.000
    N226     N        0.05679    0.02002    0.60992    1.000
    Si227    Si       0.05318    0.12162    0.60002    1.000
    N228     N        0.10749    0.06391    0.61892    1.000
    Si229    Si       0.03062    0.04148    0.63681    1.000
    Si230    Si       0.07831    0.05244    0.58897    1.000
    N231     N        0.01895    0.13312    0.62462    1.000
    N232     N        0.08026    0.13029    0.63320    1.000
    Si233    Si       0.15093    0.06253    0.62073    1.000
    N234     N        0.16234    0.10460    0.61384    1.000
    N235     N        0.21620    0.02176    0.62838    1.000
    Si236    Si       0.19855    0.01354    0.58901    1.000
    N237     N        0.16286    0.03706    0.58848    1.000
    N238     N        0.04193    0.23320    0.61722    1.000
    Si239    Si       0.08845    0.23674    0.60855    1.000
    Si240    Si       0.00156    0.22919    0.59849    1.000
    N241     N        0.11049    0.19857    0.61387    1.000
    N242     N        0.99402    0.18465    0.58917    1.000
    Si243    Si       0.20365    0.20636    0.62413    1.000
    Si244    Si       0.14474    0.18901    0.58836    1.000
    Si245    Si       0.17035    0.13847    0.64002    1.000
    N246     N        0.17571    0.17303    0.61784    1.000
    N247     N        0.18602    0.24430    0.63974    1.000
    N248     N        0.05216    0.07177    0.65948    1.000
    Si249    Si       0.09141    0.09067    0.64987    1.000
    N250     N        0.04390    0.12720    0.69339    1.000
    Si251    Si       0.03274    0.08712    0.69794    1.000
    N252     N        0.99001    0.07732    0.69036    1.000
    N253     N        0.02938    0.00946    0.66801    1.000
    N254     N        0.12139    0.09279    0.68062    1.000
    Si255    Si       0.23222    0.10742    0.68023    1.000
    N256     N        0.15829    0.04274    0.66068    1.000
    Si257    Si       0.15054    0.12166    0.69509    1.000
    N258     N        0.19037    0.11958    0.67438    1.000
    Si259    Si       0.13438    0.05480    0.69642    1.000
    Si260    Si       0.18858    0.01228    0.66103    1.000
    Si261    Si       0.09455    0.21427    0.69562    1.000
    N262     N        0.07364    0.18681    0.66705    1.000
    N263     N        0.07313    0.24949    0.68022    1.000
    Si264    Si       0.04036    0.22157    0.65962    1.000
    N265     N        0.00970    0.24184    0.68534    1.000
    N266     N        0.00928    0.18250    0.65986    1.000
    Si267    Si       0.04371    0.15194    0.65824    1.000
    Si268    Si       0.10444    0.16788    0.64158    1.000
    Si269    Si       0.23461    0.18863    0.69515    1.000
    N270     N        0.13594    0.22782    0.69128    1.000
    N271     N        0.23301    0.19082    0.65057    1.000
    Si272    Si       0.14860    0.25376    0.65941    1.000
    N273     N        0.13671    0.15168    0.66567    1.000
    N274     N        0.04988    0.07158    0.73463    1.000
    N275     N        0.10333    0.02983    0.71331    1.000
    Si276    Si       0.08269    0.04708    0.74748    1.000
    N277     N        0.99596    0.10959    0.74690    1.000
    Si278    Si       0.20502    0.04953    0.72689    1.000
    N279     N        0.16437    0.06703    0.72538    1.000
    N280     N        0.14529    0.12782    0.73675    1.000
    N281     N        0.23586    0.07655    0.71133    1.000
    Si282    Si       0.14741    0.09080    0.75839    1.000
    N283     N        0.20498    0.01390    0.70229    1.000
    N284     N        0.02577    0.24644    0.75264    1.000
    N285     N        0.07839    0.20494    0.73306    1.000
    N286     N        0.00820    0.18362    0.73321    1.000
    Si287    Si       0.03999    0.20499    0.75298    1.000
    N288     N        0.19681    0.20175    0.70561    1.000
    Si289    Si       0.16560    0.22388    0.72384    1.000
    N290     N        0.14524    0.19686    0.74995    1.000
    N291     N        0.05258    0.11302    0.79453    1.000
    N292     N        0.01343    0.05670    0.79648    1.000
    N293     N        0.07448    0.01920    0.78038    1.000
    Si294    Si       0.02824    0.08905    0.76838    1.000
    Si295    Si       0.00444    0.01578    0.77890    1.000
    N296     N        0.11257    0.06746    0.77146    1.000
    Si297    Si       0.11339    0.03281    0.80209    1.000
    N298     N        0.20944    0.04592    0.77078    1.000
    N299     N        0.15861    0.10727    0.79587    1.000
    Si300    Si       0.17977    0.01944    0.79410    1.000
    N301     N        0.23265    0.10757    0.80081    1.000
    Si302    Si       0.19520    0.12634    0.81036    1.000
    N303     N        0.15615    0.04761    0.82003    1.000
    N304     N        0.05584    0.19030    0.79080    1.000
    N305     N        0.10444    0.23198    0.79612    1.000
    Si306    Si       0.07264    0.15101    0.80846    1.000
    Si307    Si       0.10472    0.19867    0.76825    1.000
    N308     N        0.11080    0.15943    0.78765    1.000
    Si309    Si       0.07014    0.22023    0.81895    1.000
    Si310    Si       0.18547    0.20069    0.81827    1.000
    N311     N        0.17234    0.23902    0.80336    1.000
    Si312    Si       0.15016    0.15721    0.76757    1.000
    N313     N        0.18566    0.16384    0.79329    1.000
    N314     N        0.23741    0.24633    0.78268    1.000
    N315     N        0.02804    0.09033    0.85357    1.000
    Si316    Si       0.00467    0.05704    0.83889    1.000
    N317     N        0.09508    0.06106    0.83525    1.000
    N318     N        0.09880    0.12257    0.84293    1.000
    Si319    Si       0.06528    0.09277    0.83078    1.000
    N320     N        0.01320    0.02446    0.86960    1.000
    Si321    Si       0.09971    0.03124    0.86784    1.000
    Si322    Si       0.01692    0.13051    0.86354    1.000
    Si323    Si       0.16537    0.05193    0.86199    1.000
    Si324    Si       0.22534    0.01758    0.85212    1.000
    N325     N        0.14788    0.09064    0.86759    1.000
    N326     N        0.20765    0.04907    0.87561    1.000
    Si327    Si       0.12995    0.09094    0.82360    1.000
    Si328    Si       0.00637    0.23269    0.85209    1.000
    N329     N        0.04551    0.15781    0.84470    1.000
    N330     N        0.08907    0.20910    0.85528    1.000
    N331     N        0.03633    0.24588    0.82219    1.000
    Si332    Si       0.06062    0.18320    0.87669    1.000
    Si333    Si       0.23257    0.16605    0.85878    1.000
    N334     N        0.19925    0.13742    0.85380    1.000
    N335     N        0.22478    0.20057    0.83423    1.000
    N336     N        0.16000    0.19679    0.85244    1.000
    Si337    Si       0.12850    0.21910    0.87096    1.000
    N338     N        0.07372    0.03801    0.90209    1.000
    Si339    Si       0.03417    0.02868    0.90854    1.000
    N340     N        0.08903    0.10537    0.91485    1.000
    N341     N        0.01094    0.06231    0.92397    1.000
    Si342    Si       0.08821    0.06738    0.93310    1.000
    N343     N        0.20323    0.10478    0.91859    1.000
    Si344    Si       0.21615    0.06261    0.91487    1.000
    N345     N        0.13931    0.02883    0.88737    1.000
    Si346    Si       0.15159    0.02751    0.92987    1.000
    Si347    Si       0.17680    0.11992    0.88703    1.000
    Si348    Si       0.11484    0.11964    0.88302    1.000
    N349     N        0.02876    0.13759    0.90536    1.000
    Si350    Si       0.06477    0.13813    0.93084    1.000
    N351     N        0.02699    0.21120    0.88533    1.000
    Si352    Si       0.01231    0.21158    0.92813    1.000
    N353     N        0.08492    0.17015    0.91052    1.000
    Si354    Si       0.99837    0.15201    0.93157    1.000
    N355     N        0.00368    0.25359    0.93303    1.000
    N356     N        0.14656    0.14463    0.90186    1.000
    Si357    Si       0.12610    0.17537    0.92454    1.000
    Si358    Si       0.16298    0.24667    0.93044    1.000
    N359     N        0.13878    0.21507    0.91177    1.000
    N360     N        0.20501    0.24351    0.91580    1.000
    Si361    Si       0.22267    0.20587    0.93121    1.000
    N362     N        0.22881    0.17541    0.90105    1.000
    Si363    Si       0.21650    0.14421    0.93009    1.000
    N364     N        0.06880    0.06637    0.97266    1.000
    N365     N        0.00377    0.10055    0.98009    1.000
    Si366    Si       0.04751    0.09816    0.98927    1.000
    Si367    Si       0.10457    0.04623    0.99066    1.000
    N368     N        0.12493    0.05245    0.95117    1.000
    Si369    Si       0.19888    0.03034    0.98510    1.000
    N370     N        0.19394    0.03589    0.94183    1.000
    N371     N        0.06857    0.13369    0.97650    1.000
    N372     N        0.02690    0.17599    0.95246    1.000
    Si373    Si       0.09948    0.16151    0.99571    1.000
    Si374    Si       0.03271    0.18447    0.99239    1.000
    Si375    Si       0.16755    0.19271    0.97943    1.000
    N376     N        0.19457    0.17794    0.95281    1.000
    N377     N        0.13015    0.17270    0.96719    1.000
    N378     N        0.16119    0.23574    0.97254    1.000
    N379     N        0.07194    0.33012    0.02302    1.000
    N380     N        0.00965    0.35610    0.03225    1.000
    Si381    Si       0.04641    0.36626    0.00932    1.000
    N382     N        0.10471    0.26389    0.00624    1.000
    Si383    Si       0.08075    0.29662    0.99490    1.000
    N384     N        0.98800    0.27314    0.04543    1.000
    N385     N        0.17906    0.37017    0.02372    1.000
    N386     N        0.21884    0.31027    0.03083    1.000
    Si387    Si       0.19107    0.33240    0.00282    1.000
    Si388    Si       0.20518    0.27351    0.05258    1.000
    Si389    Si       0.14823    0.26611    0.00162    1.000
    N390     N        0.99453    0.42255    0.01582    1.000
    Si391    Si       0.03599    0.43838    0.01702    1.000
    N392     N        0.06397    0.40507    0.02377    1.000
    Si393    Si       0.10878    0.49576    0.03397    1.000
    N394     N        0.10953    0.45379    0.04793    1.000
    Si395    Si       0.09556    0.41213    0.05421    1.000
    N396     N        0.03739    0.46253    0.05403    1.000
    Si397    Si       0.19308    0.40583    0.00186    1.000
    N398     N        0.17491    0.44041    0.02095    1.000
    Si399    Si       0.17244    0.48021    0.99929    1.000
    N400     N        0.15209    0.49646    0.03378    1.000
    N401     N        0.05362    0.34629    0.08977    1.000
    Si402    Si       0.01304    0.35714    0.07835    1.000
    N403     N        0.10895    0.31716    0.09485    1.000
    Si404    Si       0.08710    0.33805    0.06338    1.000
    N405     N        0.18930    0.29170    0.08824    1.000
    N406     N        0.16654    0.35243    0.09843    1.000
    Si407    Si       0.15640    0.37687    0.06381    1.000
    Si408    Si       0.15158    0.31040    0.10364    1.000
    N409     N        0.11287    0.37352    0.05801    1.000
    N410     N        0.00236    0.39823    0.08575    1.000
    Si411    Si       0.00483    0.48800    0.06795    1.000
    N412     N        0.07775    0.42271    0.09269    1.000
    Si413    Si       0.07464    0.46522    0.08224    1.000
    N414     N        0.08582    0.50773    0.06862    1.000
    N415     N        0.01437    0.50698    0.10631    1.000
    Si416    Si       0.22806    0.47156    0.07651    1.000
    N417     N        0.18230    0.47163    0.08876    1.000
    Si418    Si       0.15426    0.45376    0.05833    1.000
    N419     N        0.15659    0.41545    0.07993    1.000
    N420     N        0.00355    0.29295    0.14577    1.000
    N421     N        0.06532    0.31949    0.15655    1.000
    N422     N        0.09779    0.37430    0.14289    1.000
    Si423    Si       0.08043    0.34142    0.12306    1.000
    N424     N        0.20838    0.33665    0.15158    1.000
    Si425    Si       0.18107    0.36728    0.13674    1.000
    N426     N        0.15083    0.28987    0.14049    1.000
    N427     N        0.23091    0.27540    0.14284    1.000
    Si428    Si       0.21604    0.30803    0.11861    1.000
    Si429    Si       0.03048    0.48332    0.13966    1.000
    N430     N        0.07145    0.47556    0.12794    1.000
    Si431    Si       0.08660    0.41797    0.13422    1.000
    N432     N        0.00290    0.44669    0.14085    1.000
    N433     N        0.05792    0.42020    0.16764    1.000
    N434     N        0.99093    0.38814    0.15923    1.000
    Si435    Si       0.01439    0.42411    0.17299    1.000
    Si436    Si       0.11167    0.48004    0.14673    1.000
    Si437    Si       0.16923    0.43523    0.12086    1.000
    Si438    Si       0.17780    0.50030    0.12490    1.000
    N439     N        0.12664    0.44114    0.13442    1.000
    N440     N        0.18593    0.46665    0.15234    1.000
    N441     N        0.20174    0.40423    0.12819    1.000
    N442     N        0.13487    0.51149    0.13032    1.000
    N443     N        0.05005    0.28570    0.20520    1.000
    N444     N        0.01035    0.34096    0.20239    1.000
    Si445    Si       0.09022    0.29842    0.18742    1.000
    Si446    Si       0.02816    0.31067    0.17595    1.000
    N447     N        0.11255    0.33298    0.20180    1.000
    Si448    Si       0.11660    0.37308    0.18385    1.000
    Si449    Si       0.21388    0.33089    0.19596    1.000
    N450     N        0.22127    0.37334    0.21159    1.000
    N451     N        0.18193    0.30929    0.21904    1.000
    N452     N        0.16022    0.37697    0.17270    1.000
    Si453    Si       0.06630    0.41892    0.20964    1.000
    N454     N        0.01252    0.44340    0.21121    1.000
    Si455    Si       0.00560    0.48686    0.21127    1.000
    N456     N        0.11051    0.40922    0.20614    1.000
    N457     N        0.07705    0.45313    0.23257    1.000
    Si458    Si       0.20891    0.46128    0.18769    1.000
    N459     N        0.23892    0.43328    0.17533    1.000
    Si460    Si       0.11925    0.44969    0.22120    1.000
    N461     N        0.11779    0.47862    0.19003    1.000
    N462     N        0.18766    0.43514    0.21743    1.000
    N463     N        0.22547    0.49908    0.20665    1.000
    Si464    Si       0.17987    0.39308    0.20834    1.000
    N465     N        0.03766    0.32061    0.26409    1.000
    Si466    Si       0.04583    0.28145    0.24773    1.000
    Si467    Si       0.02225    0.35502    0.24200    1.000
    N468     N        0.99436    0.37814    0.27121    1.000
    N469     N        0.13119    0.30853    0.27075    1.000
    N470     N        0.15783    0.36984    0.23908    1.000
    N471     N        0.21710    0.27832    0.27019    1.000
    Si472    Si       0.16944    0.37957    0.28121    1.000
    Si473    Si       0.12117    0.26580    0.27243    1.000
    N474     N        0.20562    0.35299    0.28268    1.000
    Si475    Si       0.19330    0.26869    0.23636    1.000
    Si476    Si       0.23366    0.37243    0.25469    1.000
    Si477    Si       0.14408    0.32838    0.23203    1.000
    Si478    Si       0.00716    0.42199    0.25117    1.000
    Si479    Si       0.06915    0.48829    0.25577    1.000
    N480     N        0.02208    0.44663    0.28493    1.000
    N481     N        0.02670    0.50001    0.24651    1.000
    Si482    Si       0.00780    0.49000    0.28623    1.000
    N483     N        0.04373    0.39327    0.23459    1.000
    Si484    Si       0.18026    0.45095    0.26036    1.000
    N485     N        0.13716    0.45571    0.26019    1.000
    N486     N        0.20596    0.48246    0.27390    1.000
    Si487    Si       0.03832    0.32240    0.30754    1.000
    N488     N        0.06655    0.35394    0.31412    1.000
    N489     N        0.05006    0.28280    0.32141    1.000
    N490     N        0.00067    0.33475    0.32823    1.000
    Si491    Si       0.08997    0.27777    0.33921    1.000
    Si492    Si       0.09794    0.37907    0.32321    1.000
    Si493    Si       0.99202    0.37580    0.31680    1.000
    N494     N        0.11399    0.31194    0.34110    1.000
    Si495    Si       0.14201    0.32363    0.31101    1.000
    N496     N        0.18002    0.30696    0.32561    1.000
    N497     N        0.13820    0.36614    0.30845    1.000
    Si498    Si       0.21193    0.31253    0.29820    1.000
    Si499    Si       0.06158    0.49346    0.33068    1.000
    N500     N        0.02151    0.40074    0.33603    1.000
    N501     N        0.08552    0.41539    0.30326    1.000
    Si502    Si       0.04737    0.42969    0.31527    1.000
    N503     N        0.08402    0.47924    0.29552    1.000
    Si504    Si       0.11318    0.44831    0.29581    1.000
    N505     N        0.20415    0.46270    0.34171    1.000
    Si506    Si       0.17715    0.43085    0.33154    1.000
    Si507    Si       0.22960    0.48102    0.31255    1.000
    N508     N        0.18292    0.41846    0.28964    1.000
    N509     N        0.13954    0.45326    0.32958    1.000
    N510     N        0.02063    0.30251    0.38578    1.000
    N511     N        0.10279    0.37626    0.36623    1.000
    N512     N        0.09850    0.25846    0.37788    1.000
    Si513    Si       0.11594    0.33867    0.37638    1.000
    N514     N        0.15933    0.33925    0.38385    1.000
    Si515    Si       0.18747    0.30899    0.36809    1.000
    N516     N        0.22707    0.32890    0.37419    1.000
    N517     N        0.18497    0.27616    0.39507    1.000
    Si518    Si       0.17887    0.37641    0.39770    1.000
    N519     N        0.09275    0.50011    0.36177    1.000
    N520     N        0.10351    0.44357    0.38941    1.000
    Si521    Si       0.06513    0.46583    0.39158    1.000
    Si522    Si       0.01743    0.42890    0.36972    1.000
    Si523    Si       0.10807    0.40294    0.40105    1.000
    N524     N        0.04127    0.43037    0.40491    1.000
    N525     N        0.04519    0.45779    0.34870    1.000
    Si526    Si       0.12932    0.47193    0.36744    1.000
    N527     N        0.18763    0.40725    0.36526    1.000
    N528     N        0.16536    0.47315    0.39376    1.000
    Si529    Si       0.20404    0.44983    0.38484    1.000
    Si530    Si       0.07774    0.34145    0.44106    1.000
    Si531    Si       0.02061    0.29542    0.42852    1.000
    N532     N        0.03435    0.33470    0.44653    1.000
    N533     N        0.05174    0.26786    0.43780    1.000
    Si534    Si       0.09004    0.27503    0.41637    1.000
    Si535    Si       0.00170    0.35831    0.46049    1.000
    N536     N        0.08358    0.38368    0.43287    1.000
    N537     N        0.09543    0.31770    0.41057    1.000
    N538     N        0.20436    0.35967    0.43049    1.000
    Si539    Si       0.19124    0.28454    0.44072    1.000
    N540     N        0.23344    0.29762    0.43433    1.000
    N541     N        0.11715    0.26231    0.44889    1.000
    N542     N        0.06066    0.49458    0.42492    1.000
    N543     N        0.00662    0.40075    0.45120    1.000
    Si544    Si       0.04851    0.40869    0.44107    1.000
    Si545    Si       0.06175    0.47782    0.46733    1.000
    N546     N        0.20926    0.43192    0.42512    1.000
    N547     N        0.14852    0.39931    0.41689    1.000
    N548     N        0.15083    0.45978    0.45595    1.000
    Si549    Si       0.15970    0.49537    0.43228    1.000
    Si550    Si       0.17002    0.42216    0.44472    1.000
    N551     N        0.06771    0.37420    0.51109    1.000
    Si552    Si       0.10442    0.34949    0.51211    1.000
    N553     N        0.99857    0.35515    0.50480    1.000
    N554     N        0.09887    0.32523    0.47631    1.000
    N555     N        0.07668    0.26374    0.50584    1.000
    Si556    Si       0.11096    0.28472    0.48674    1.000
    Si557    Si       0.18095    0.28605    0.51153    1.000
    N558     N        0.21757    0.35596    0.51041    1.000
    N559     N        0.18186    0.31046    0.47494    1.000
    N560     N        0.14227    0.26517    0.51207    1.000
    Si561    Si       0.18957    0.35368    0.47241    1.000
    Si562    Si       0.07661    0.41768    0.50958    1.000
    N563     N        0.09453    0.49477    0.49132    1.000
    N564     N        0.03108    0.48424    0.49744    1.000
    N565     N        0.06550    0.43440    0.47045    1.000
    Si566    Si       0.99279    0.49392    0.48044    1.000
    Si567    Si       0.22564    0.43556    0.52365    1.000
    Si568    Si       0.20317    0.50536    0.49229    1.000
    Si569    Si       0.13249    0.47175    0.49495    1.000
    Si570    Si       0.15574    0.40299    0.51610    1.000
    N571     N        0.17173    0.39379    0.47803    1.000
    N572     N        0.11792    0.43194    0.51290    1.000
    N573     N        0.16399    0.49919    0.50819    1.000
    N574     N        0.22892    0.47287    0.50065    1.000
    Si575    Si       0.07204    0.28827    0.55401    1.000
    N576     N        0.03299    0.30668    0.54230    1.000
    N577     N        0.03387    0.36125    0.57009    1.000
    N578     N        0.10271    0.31739    0.54141    1.000
    Si579    Si       0.99390    0.28981    0.55578    1.000
    Si580    Si       0.03459    0.34790    0.52970    1.000
    Si581    Si       0.21100    0.34168    0.55217    1.000
    Si582    Si       0.14177    0.33021    0.55776    1.000
    N583     N        0.17998    0.31087    0.54928    1.000
    N584     N        0.13919    0.36517    0.52792    1.000
    N585     N        0.99816    0.47105    0.56370    1.000
    Si586    Si       0.03303    0.46893    0.53753    1.000
    N587     N        0.06079    0.49557    0.55839    1.000
    Si588    Si       0.02384    0.40421    0.56905    1.000
    N589     N        0.04751    0.42957    0.54073    1.000
    N590     N        0.13459    0.47739    0.56146    1.000
    Si591    Si       0.17229    0.45592    0.56985    1.000
    N592     N        0.18414    0.43131    0.53614    1.000
    Si593    Si       0.03297    0.32626    0.59882    1.000
    N594     N        0.00134    0.29266    0.60168    1.000
    Si595    Si       0.10620    0.30499    0.62080    1.000
    N596     N        0.07189    0.30539    0.59569    1.000
    N597     N        0.03147    0.34554    0.63776    1.000
    N598     N        0.11662    0.26404    0.63203    1.000
    N599     N        0.20681    0.30985    0.62552    1.000
    N600     N        0.13862    0.32484    0.60050    1.000
    Si601    Si       0.17647    0.33661    0.61539    1.000
    N602     N        0.16558    0.37050    0.64015    1.000
    N603     N        0.19618    0.36631    0.58540    1.000
    Si604    Si       0.00054    0.45688    0.60371    1.000
    N605     N        0.09467    0.44994    0.61197    1.000
    N606     N        0.03086    0.42200    0.60744    1.000
    N607     N        0.02104    0.49087    0.62448    1.000
    Si608    Si       0.06598    0.42520    0.63440    1.000
    Si609    Si       0.09671    0.48096    0.58120    1.000
    N610     N        0.16296    0.42779    0.60186    1.000
    Si611    Si       0.13657    0.44557    0.62943    1.000
    N612     N        0.14659    0.48687    0.63172    1.000
    N613     N        0.20265    0.48007    0.59255    1.000
    Si614    Si       0.19112    0.39670    0.61368    1.000
    Si615    Si       0.18513    0.50364    0.62461    1.000
    N616     N        0.09292    0.31908    0.66213    1.000
    Si617    Si       0.06796    0.35475    0.66075    1.000
    Si618    Si       0.08470    0.28944    0.69379    1.000
    Si619    Si       0.99310    0.36190    0.65475    1.000
    N620     N        0.99258    0.34168    0.69220    1.000
    N621     N        0.05408    0.36954    0.69852    1.000
    N622     N        0.16897    0.28750    0.68099    1.000
    Si623    Si       0.20702    0.27865    0.65746    1.000
    Si624    Si       0.10818    0.50525    0.64521    1.000
    N625     N        0.99438    0.40449    0.66921    1.000
    N626     N        0.05201    0.43878    0.67442    1.000
    N627     N        0.10595    0.48040    0.67997    1.000
    Si628    Si       0.06404    0.47317    0.69582    1.000
    Si629    Si       0.03030    0.40757    0.69407    1.000
    N630     N        0.08951    0.38726    0.64139    1.000
    Si631    Si       0.01502    0.50922    0.66331    1.000
    N632     N        0.14500    0.42631    0.66706    1.000
    N633     N        0.21112    0.50390    0.66139    1.000
    Si634    Si       0.13044    0.38613    0.66142    1.000
    Si635    Si       0.18887    0.42162    0.67860    1.000
    Si636    Si       0.21993    0.48312    0.70003    1.000
    N637     N        0.21640    0.41587    0.64470    1.000
    Si638    Si       0.14249    0.46600    0.69810    1.000
    N639     N        0.18525    0.46002    0.69978    1.000
    Si640    Si       0.02789    0.34030    0.71774    1.000
    Si641    Si       0.01387    0.26906    0.71860    1.000
    Si642    Si       0.08857    0.37848    0.72595    1.000
    N643     N        0.04499    0.30151    0.70936    1.000
    N644     N        0.09115    0.34773    0.75855    1.000
    N645     N        0.02434    0.35408    0.75793    1.000
    N646     N        0.11372    0.28807    0.72577    1.000
    Si647    Si       0.09984    0.30410    0.76203    1.000
    Si648    Si       0.22930    0.37442    0.73049    1.000
    Si649    Si       0.15691    0.29719    0.72109    1.000
    N650     N        0.16390    0.33309    0.74387    1.000
    Si651    Si       0.16003    0.37315    0.72921    1.000
    N652     N        0.12487    0.37481    0.70374    1.000
    N653     N        0.17735    0.26291    0.74120    1.000
    N654     N        0.06022    0.47440    0.73954    1.000
    N655     N        0.01833    0.41456    0.73609    1.000
    N656     N        0.08884    0.41564    0.74511    1.000
    Si657    Si       0.05069    0.43644    0.75688    1.000
    Si658    Si       0.99416    0.38837    0.76059    1.000
    Si659    Si       0.12313    0.43817    0.75782    1.000
    N660     N        0.13063    0.47403    0.73952    1.000
    N661     N        0.15464    0.40630    0.75838    1.000
    N662     N        0.19509    0.38804    0.70678    1.000
    Si663    Si       0.05648    0.34196    0.78476    1.000
    N664     N        0.05955    0.29819    0.77749    1.000
    Si665    Si       0.02896    0.27089    0.78787    1.000
    N666     N        0.99494    0.29541    0.79976    1.000
    Si667    Si       0.19803    0.26402    0.78045    1.000
    N668     N        0.21463    0.36485    0.77065    1.000
    N669     N        0.15002    0.36107    0.80688    1.000
    N670     N        0.12550    0.29801    0.79750    1.000
    N671     N        0.19804    0.30237    0.80132    1.000
    Si672    Si       0.18072    0.33864    0.78335    1.000
    Si673    Si       0.13461    0.25749    0.81363    1.000
    N674     N        0.04788    0.43935    0.79972    1.000
    N675     N        0.07928    0.50159    0.80480    1.000
    N676     N        0.99184    0.39673    0.80257    1.000
    Si677    Si       0.08331    0.45781    0.81659    1.000
    Si678    Si       0.14940    0.40416    0.80392    1.000
    N679     N        0.11987    0.43917    0.80093    1.000
    N680     N        0.23654    0.41480    0.80894    1.000
    Si681    Si       0.05554    0.35111    0.86047    1.000
    N682     N        0.01772    0.32937    0.86465    1.000
    N683     N        0.07637    0.33915    0.82427    1.000
    Si684    Si       0.98913    0.30361    0.84240    1.000
    N685     N        0.13039    0.33053    0.86487    1.000
    Si686    Si       0.21807    0.30624    0.83929    1.000
    N687     N        0.22946    0.34811    0.83792    1.000
    Si688    Si       0.11994    0.33391    0.82207    1.000
    N689     N        0.19214    0.29908    0.87423    1.000
    Si690    Si       0.21927    0.36857    0.87534    1.000
    N691     N        0.13064    0.26145    0.85598    1.000
    N692     N        0.08184    0.45580    0.85949    1.000
    N693     N        0.00684    0.49299    0.83394    1.000
    N694     N        0.05264    0.39377    0.85120    1.000
    Si695    Si       0.02215    0.41796    0.82796    1.000
    N696     N        0.99112    0.42594    0.85918    1.000
    Si697    Si       0.07694    0.41808    0.88041    1.000
    Si698    Si       0.01091    0.49930    0.87651    1.000
    Si699    Si       0.21571    0.43085    0.84229    1.000
    N700     N        0.21100    0.47228    0.85565    1.000
    N701     N        0.23785    0.40874    0.87195    1.000
    N702     N        0.17438    0.41786    0.83731    1.000
    N703     N        0.07470    0.34601    0.89905    1.000
    Si704    Si       0.99908    0.33637    0.90310    1.000
    Si705    Si       0.11849    0.35763    0.89509    1.000
    N706     N        0.14636    0.28464    0.92101    1.000
    Si707    Si       0.22296    0.27636    0.89633    1.000
    N708     N        0.13977    0.35287    0.93544    1.000
    N709     N        0.18196    0.38131    0.89566    1.000
    Si710    Si       0.14865    0.29380    0.87913    1.000
    N711     N        0.09320    0.49736    0.91953    1.000
    N712     N        0.04755    0.41585    0.91265    1.000
    Si713    Si       0.00312    0.42317    0.90223    1.000
    N714     N        0.00874    0.46806    0.90756    1.000
    Si715    Si       0.08789    0.49441    0.87731    1.000
    N716     N        0.16537    0.44795    0.90296    1.000
    Si717    Si       0.15752    0.41301    0.87765    1.000
    Si718    Si       0.19465    0.48019    0.89599    1.000
    N719     N        0.11542    0.39919    0.88099    1.000
    N720     N        0.22807    0.47870    0.92560    1.000
    Si721    Si       0.01363    0.28540    0.96044    1.000
    N722     N        0.09126    0.30981    0.95471    1.000
    N723     N        0.05603    0.37227    0.96758    1.000
    N724     N        0.04026    0.27651    0.99333    1.000
    Si725    Si       0.06151    0.33930    0.93883    1.000
    N726     N        0.02217    0.32116    0.93523    1.000
    Si727    Si       0.13371    0.31445    0.95307    1.000
    N728     N        0.20799    0.34964    0.96366    1.000
    N729     N        0.15802    0.30640    0.98888    1.000
    Si730    Si       0.17854    0.37183    0.93728    1.000
    N731     N        0.04525    0.44830    0.97450    1.000
    N732     N        0.10398    0.43227    0.94805    1.000
    Si733    Si       0.06438    0.41471    0.95482    1.000
    Si734    Si       0.01609    0.47433    0.95026    1.000
    Si735    Si       0.10279    0.47890    0.95797    1.000
    N736     N        0.09102    0.50084    0.99484    1.000
    Si737    Si       0.14813    0.43919    0.94098    1.000
    N738     N        0.21471    0.48500    0.98976    1.000
    N739     N        0.14756    0.47710    0.96469    1.000
    N740     N        0.17546    0.40886    0.96083    1.000
    N741     N        0.23640    0.41189    0.99927    1.000
    Si742    Si       0.01614    0.55837    0.03336    1.000
    N743     N        0.10278    0.55680    0.02686    1.000
    N744     N        0.99557    0.52024    0.04114    1.000
    N745     N        0.99098    0.59316    0.02973    1.000
    N746     N        0.03913    0.55328    0.99796    1.000
    N747     N        0.17436    0.58405    0.02763    1.000
    Si748    Si       0.13162    0.59013    0.02347    1.000
    N749     N        0.11972    0.62015    0.05533    1.000
    N750     N        0.24022    0.56477    0.00446    1.000
    N751     N        0.04961    0.71495    0.04289    1.000
    N752     N        0.09765    0.68232    0.00713    1.000
    Si753    Si       0.06340    0.70770    0.00323    1.000
    Si754    Si       0.00726    0.73185    0.04688    1.000
    N755     N        0.23734    0.75119    0.05610    1.000
    Si756    Si       0.12008    0.66086    0.03986    1.000
    N757     N        0.15758    0.65168    0.01528    1.000
    N758     N        0.12110    0.74825    0.03807    1.000
    N759     N        0.22366    0.67849    0.00457    1.000
    Si760    Si       0.19381    0.66761    0.03242    1.000
    N761     N        0.04327    0.56182    0.06759    1.000
    Si762    Si       0.01711    0.55212    0.10271    1.000
    Si763    Si       0.08401    0.55049    0.06580    1.000
    N764     N        0.10582    0.56827    0.10027    1.000
    N765     N        0.00843    0.62925    0.09774    1.000
    N766     N        0.23419    0.51380    0.07589    1.000
    N767     N        0.23655    0.57658    0.06837    1.000
    Si768    Si       0.13107    0.60552    0.09551    1.000
    N769     N        0.17308    0.59595    0.09472    1.000
    Si770    Si       0.19898    0.59733    0.06272    1.000
    N771     N        0.04809    0.68946    0.10738    1.000
    Si772    Si       0.00781    0.67436    0.09736    1.000
    Si773    Si       0.07441    0.71012    0.07814    1.000
    N774     N        0.08667    0.74900    0.09321    1.000
    N775     N        0.98982    0.69387    0.06476    1.000
    Si776    Si       0.14318    0.72310    0.06604    1.000
    N777     N        0.17891    0.70087    0.05682    1.000
    N778     N        0.11388    0.68941    0.07380    1.000
    Si779    Si       0.21549    0.71566    0.07436    1.000
    N780     N        0.15944    0.75655    0.08965    1.000
    N781     N        0.21727    0.73335    0.11521    1.000
    N782     N        0.21535    0.63671    0.05589    1.000
    Si783    Si       0.01782    0.61130    0.13742    1.000
    N784     N        0.02909    0.57091    0.13843    1.000
    N785     N        0.08877    0.53766    0.17289    1.000
    Si786    Si       0.04659    0.54754    0.17294    1.000
    Si787    Si       0.11417    0.55014    0.13922    1.000
    Si788    Si       0.18415    0.57745    0.13297    1.000
    N789     N        0.14383    0.57984    0.14954    1.000
    Si790    Si       0.12765    0.62144    0.16284    1.000
    N791     N        0.21190    0.59820    0.16115    1.000
    N792     N        0.20039    0.53636    0.12874    1.000
    N793     N        0.04700    0.63929    0.15701    1.000
    N794     N        0.09702    0.69193    0.15326    1.000
    Si795    Si       0.05530    0.68146    0.15062    1.000
    N796     N        0.98618    0.75072    0.11104    1.000
    Si797    Si       0.17685    0.68167    0.16898    1.000
    N798     N        0.12243    0.75620    0.15963    1.000
    N799     N        0.16026    0.70175    0.13287    1.000
    Si800    Si       0.12155    0.68109    0.11868    1.000
    N801     N        0.12284    0.63813    0.12314    1.000
    N802     N        0.22030    0.67629    0.16623    1.000
    Si803    Si       0.17551    0.74131    0.12752    1.000
    N804     N        0.03904    0.57776    0.20213    1.000
    Si805    Si       0.05666    0.61745    0.19305    1.000
    N806     N        0.09971    0.61606    0.19251    1.000
    Si807    Si       0.00512    0.57297    0.22916    1.000
    Si808    Si       0.11368    0.52134    0.20509    1.000
    N809     N        0.02533    0.50620    0.17731    1.000
    N810     N        0.15261    0.53071    0.21341    1.000
    Si811    Si       0.19254    0.61636    0.19484    1.000
    N812     N        0.16400    0.59350    0.22236    1.000
    Si813    Si       0.12510    0.61398    0.22771    1.000
    N814     N        0.22383    0.63316    0.21831    1.000
    N815     N        0.03881    0.70728    0.18204    1.000
    N816     N        0.09162    0.73258    0.21178    1.000
    Si817    Si       0.04650    0.72616    0.22150    1.000
    Si818    Si       0.99491    0.70670    0.18636    1.000
    N819     N        0.00024    0.73118    0.22416    1.000
    N820     N        0.04150    0.63688    0.22912    1.000
    Si821    Si       0.11842    0.71738    0.17974    1.000
    N822     N        0.15245    0.70097    0.20105    1.000
    N823     N        0.16186    0.64207    0.17797    1.000
    N824     N        0.09747    0.59618    0.26025    1.000
    N825     N        0.02995    0.57623    0.26680    1.000
    Si826    Si       0.05667    0.61307    0.26147    1.000
    Si827    Si       0.10271    0.55367    0.27433    1.000
    N828     N        0.09421    0.52413    0.24457    1.000
    N829     N        0.20848    0.55256    0.25736    1.000
    Si830    Si       0.16756    0.55747    0.24364    1.000
    N831     N        0.14539    0.55427    0.28233    1.000
    N832     N        0.20266    0.61876    0.28432    1.000
    Si833    Si       0.21788    0.57763    0.28967    1.000
    Si834    Si       0.22547    0.51329    0.24666    1.000
    N835     N        0.00021    0.67701    0.26615    1.000
    N836     N        0.05952    0.71042    0.26050    1.000
    Si837    Si       0.09598    0.73172    0.25668    1.000
    Si838    Si       0.04064    0.67833    0.28057    1.000
    Si839    Si       0.99861    0.64942    0.23037    1.000
    N840     N        0.06888    0.64398    0.28997    1.000
    Si841    Si       0.11311    0.63553    0.28864    1.000
    N842     N        0.13103    0.65188    0.25056    1.000
    Si843    Si       0.20936    0.71436    0.28600    1.000
    N844     N        0.21155    0.75544    0.26577    1.000
    Si845    Si       0.15404    0.68823    0.24363    1.000
    N846     N        0.19459    0.68385    0.26004    1.000
    N847     N        0.13233    0.71546    0.27152    1.000
    Si848    Si       0.22030    0.64940    0.26148    1.000
    Si849    Si       0.03624    0.55658    0.30694    1.000
    N850     N        0.08194    0.55117    0.31355    1.000
    N851     N        0.01980    0.58239    0.33813    1.000
    N852     N        0.02690    0.51527    0.31412    1.000
    Si853    Si       0.15344    0.57038    0.32142    1.000
    N854     N        0.13238    0.60718    0.31694    1.000
    N855     N        0.19708    0.57727    0.32952    1.000
    Si856    Si       0.19778    0.62321    0.32694    1.000
    Si857    Si       0.06956    0.66257    0.33103    1.000
    N858     N        0.02831    0.67634    0.32364    1.000
    N859     N        0.05541    0.75693    0.34904    1.000
    Si860    Si       0.13773    0.71049    0.31488    1.000
    N861     N        0.18161    0.71213    0.31860    1.000
    N862     N        0.11952    0.74527    0.33788    1.000
    N863     N        0.11511    0.67004    0.32373    1.000
    Si864    Si       0.20515    0.72727    0.35274    1.000
    Si865    Si       0.04713    0.59625    0.37124    1.000
    N866     N        0.06602    0.55743    0.38228    1.000
    N867     N        0.07142    0.63073    0.36064    1.000
    Si868    Si       0.09600    0.54287    0.35433    1.000
    N869     N        0.02104    0.59905    0.40593    1.000
    N870     N        0.00138    0.53896    0.40879    1.000
    N871     N        0.19859    0.54578    0.39057    1.000
    Si872    Si       0.15588    0.55881    0.39757    1.000
    N873     N        0.13834    0.55277    0.35740    1.000
    Si874    Si       0.22282    0.55277    0.35602    1.000
    N875     N        0.07150    0.69388    0.36764    1.000
    Si876    Si       0.08524    0.73451    0.36886    1.000
    N877     N        0.00931    0.72540    0.38417    1.000
    Si878    Si       0.02194    0.68603    0.36672    1.000
    Si879    Si       0.07573    0.66049    0.39829    1.000
    N880     N        0.02988    0.66801    0.40494    1.000
    N881     N        0.06220    0.74621    0.40816    1.000
    Si882    Si       0.12838    0.63763    0.35089    1.000
    N883     N        0.12369    0.65091    0.39398    1.000
    N884     N        0.21618    0.63763    0.40597    1.000
    N885     N        0.17194    0.64245    0.35404    1.000
    N886     N        0.23598    0.69952    0.35864    1.000
    Si887    Si       0.16991    0.64699    0.39853    1.000
    N888     N        0.12219    0.74183    0.40149    1.000
    N889     N        0.18015    0.74550    0.38205    1.000
    Si890    Si       0.04411    0.60175    0.44131    1.000
    N891     N        0.05225    0.55930    0.44871    1.000
    N892     N        0.07723    0.62574    0.42908    1.000
    Si893    Si       0.04655    0.53647    0.41331    1.000
    Si894    Si       0.12025    0.62510    0.42769    1.000
    N895     N        0.22666    0.57832    0.44511    1.000
    Si896    Si       0.22120    0.53885    0.42637    1.000
    N897     N        0.13517    0.52985    0.42323    1.000
    N898     N        0.15553    0.60116    0.41104    1.000
    N899     N        0.19565    0.51007    0.45052    1.000
    Si900    Si       0.04016    0.70931    0.41972    1.000
    N901     N        0.07919    0.69224    0.43550    1.000
    Si902    Si       0.09546    0.73420    0.43706    1.000
    N903     N        0.01636    0.72304    0.45356    1.000
    Si904    Si       0.21457    0.67122    0.43852    1.000
    N905     N        0.13064    0.64459    0.46403    1.000
    Si906    Si       0.16321    0.72798    0.42110    1.000
    N907     N        0.18682    0.74834    0.45199    1.000
    N908     N        0.17943    0.68660    0.41912    1.000
    N909     N        0.13163    0.71660    0.46291    1.000
    Si910    Si       0.02574    0.56114    0.48369    1.000
    N911     N        0.02303    0.60512    0.47614    1.000
    Si912    Si       0.99908    0.62827    0.50373    1.000
    N913     N        0.04656    0.55157    0.51943    1.000
    Si914    Si       0.07404    0.51839    0.52327    1.000
    N915     N        0.98967    0.53716    0.48213    1.000
    N916     N        0.17784    0.59169    0.49386    1.000
    Si917    Si       0.21947    0.58055    0.48825    1.000
    N918     N        0.22968    0.54075    0.50120    1.000
    Si919    Si       0.03541    0.75399    0.47859    1.000
    N920     N        0.03221    0.73452    0.51816    1.000
    N921     N        0.09069    0.67738    0.51125    1.000
    N922     N        0.01787    0.66449    0.51663    1.000
    Si923    Si       0.10795    0.68116    0.47094    1.000
    N924     N        0.07828    0.75543    0.47126    1.000
    Si925    Si       0.05143    0.69204    0.52764    1.000
    N926     N        0.20317    0.65699    0.47857    1.000
    Si927    Si       0.16448    0.63277    0.48876    1.000
    Si928    Si       0.15891    0.74341    0.48512    1.000
    N929     N        0.16742    0.72963    0.52516    1.000
    Si930    Si       0.23213    0.65320    0.51094    1.000
    N931     N        0.15240    0.65617    0.52316    1.000
    Si932    Si       0.02804    0.57210    0.55472    1.000
    Si933    Si       0.10125    0.57475    0.55965    1.000
    N934     N        0.06234    0.58998    0.57214    1.000
    N935     N        0.99901    0.60143    0.53941    1.000
    N936     N        0.10907    0.53741    0.54184    1.000
    N937     N        0.11018    0.60641    0.52945    1.000
    N938     N        0.17436    0.54159    0.56114    1.000
    Si939    Si       0.14680    0.51649    0.54312    1.000
    N940     N        0.05794    0.70487    0.56736    1.000
    Si941    Si       0.05152    0.74839    0.55679    1.000
    N942     N        0.10037    0.64841    0.57994    1.000
    Si943    Si       0.11274    0.64905    0.53790    1.000
    Si944    Si       0.23821    0.71299    0.56171    1.000
    N945     N        0.20263    0.73339    0.57864    1.000
    N946     N        0.21826    0.67695    0.54537    1.000
    N947     N        0.15644    0.68911    0.58137    1.000
    Si948    Si       0.17431    0.69024    0.54164    1.000
    Si949    Si       0.17823    0.75979    0.55477    1.000
    Si950    Si       0.07058    0.62161    0.60078    1.000
    N951     N        0.07753    0.59972    0.63780    1.000
    N952     N        0.08380    0.51465    0.61102    1.000
    Si953    Si       0.04273    0.51353    0.59492    1.000
    N954     N        0.01418    0.54498    0.58395    1.000
    Si955    Si       0.11485    0.58136    0.63913    1.000
    Si956    Si       0.16581    0.56832    0.59321    1.000
    N957     N        0.12324    0.57700    0.59717    1.000
    Si958    Si       0.22518    0.60962    0.60713    1.000
    N959     N        0.18059    0.54889    0.63031    1.000
    N960     N        0.18668    0.60546    0.59216    1.000
    Si961    Si       0.00265    0.63517    0.62842    1.000
    N962     N        0.02526    0.71832    0.62804    1.000
    N963     N        0.08931    0.69614    0.62887    1.000
    N964     N        0.03941    0.64935    0.60746    1.000
    Si965    Si       0.05102    0.69125    0.60708    1.000
    Si966    Si       0.10246    0.74158    0.64274    1.000
    Si967    Si       0.04231    0.76082    0.62664    1.000
    Si968    Si       0.22470    0.67008    0.64531    1.000
    Si969    Si       0.17857    0.71350    0.60759    1.000
    N970     N        0.23887    0.64952    0.60985    1.000
    N971     N        0.14528    0.73393    0.62623    1.000
    Si972    Si       0.12223    0.67773    0.60476    1.000
    N973     N        0.20445    0.70803    0.64181    1.000
    N974     N        0.13953    0.66063    0.64031    1.000
    Si975    Si       0.05774    0.61472    0.67573    1.000
    N976     N        0.01533    0.62329    0.66843    1.000
    N977     N        0.05307    0.51584    0.68412    1.000
    Si978    Si       0.08251    0.54504    0.69672    1.000
    N979     N        0.99654    0.54752    0.65358    1.000
    N980     N        0.11365    0.54469    0.66395    1.000
    Si981    Si       0.22139    0.60447    0.67836    1.000
    Si982    Si       0.16066    0.55476    0.67230    1.000
    N983     N        0.14770    0.59658    0.66384    1.000
    N984     N        0.20349    0.56556    0.68812    1.000
    Si985    Si       0.22330    0.54387    0.65314    1.000
    N986     N        0.07319    0.65482    0.68013    1.000
    N987     N        0.99734    0.68735    0.68427    1.000
    Si988    Si       0.10857    0.67706    0.66892    1.000
    Si989    Si       0.00052    0.64801    0.70014    1.000
    N990     N        0.06568    0.75966    0.66602    1.000
    Si991    Si       0.08112    0.74280    0.70523    1.000
    Si992    Si       0.15846    0.63684    0.67097    1.000
    N993     N        0.11105    0.71870    0.68291    1.000
    N994     N        0.18133    0.74930    0.69480    1.000
    Si995    Si       0.20794    0.74720    0.65963    1.000
    N996     N        0.20180    0.63914    0.66527    1.000
    N997     N        0.09466    0.53685    0.74159    1.000
    Si998    Si       0.08688    0.58411    0.74938    1.000
    N999     N        0.07151    0.58656    0.70636    1.000
    N1000    N        0.99520    0.58207    0.75231    1.000
    Si1001   Si       0.06815    0.50840    0.76315    1.000
    N1002    N        0.22308    0.51323    0.73053    1.000
    N1003    N        0.23466    0.61745    0.71683    1.000
    Si1004   Si       0.19708    0.54730    0.72710    1.000
    N1005    N        0.15760    0.53512    0.71379    1.000
    Si1006   Si       0.13509    0.51770    0.74593    1.000
    N1007    N        0.12213    0.61158    0.75737    1.000
    Si1008   Si       0.22350    0.60456    0.75818    1.000
    N1009    N        0.03114    0.64250    0.72952    1.000
    Si1010   Si       0.00768    0.71553    0.71768    1.000
    N1011    N        0.05118    0.71324    0.71540    1.000
    Si1012   Si       0.06111    0.67171    0.71834    1.000
    N1013    N        0.08946    0.67411    0.75223    1.000
    Si1014   Si       0.12774    0.65463    0.74629    1.000
    N1015    N        0.23633    0.75198    0.74745    1.000
    N1016    N        0.13520    0.65505    0.70281    1.000
    N1017    N        0.21608    0.68989    0.72548    1.000
    Si1018   Si       0.21734    0.73090    0.71445    1.000
    N1019    N        0.05501    0.59958    0.77740    1.000
    N1020    N        0.02873    0.52368    0.77293    1.000
    Si1021   Si       0.01797    0.61683    0.76431    1.000
    N1022    N        0.10400    0.57120    0.81496    1.000
    Si1023   Si       0.03652    0.51780    0.81556    1.000
    Si1024   Si       0.06143    0.58684    0.81975    1.000
    Si1025   Si       0.11516    0.52867    0.81537    1.000
    Si1026   Si       0.12645    0.60677    0.80344    1.000
    Si1027   Si       0.18507    0.54052    0.79919    1.000
    N1028    N        0.14804    0.52339    0.78651    1.000
    N1029    N        0.22220    0.51547    0.79997    1.000
    N1030    N        0.19996    0.56805    0.76601    1.000
    Si1031   Si       0.00935    0.68809    0.78903    1.000
    Si1032   Si       0.07270    0.69718    0.78429    1.000
    N1033    N        0.10556    0.71742    0.80130    1.000
    N1034    N        0.03748    0.72169    0.77604    1.000
    N1035    N        0.04667    0.67236    0.81125    1.000
    Si1036   Si       0.14958    0.71122    0.79786    1.000
    Si1037   Si       0.20069    0.67887    0.76436    1.000
    N1038    N        0.21740    0.70708    0.79336    1.000
    N1039    N        0.16878    0.74958    0.79118    1.000
    Si1040   Si       0.21385    0.74814    0.78519    1.000
    N1041    N        0.21296    0.64038    0.77985    1.000
    N1042    N        0.15641    0.67955    0.76752    1.000
    N1043    N        0.05579    0.61645    0.85212    1.000
    N1044    N        0.03098    0.55642    0.83298    1.000
    Si1045   Si       0.01301    0.56610    0.87262    1.000
    N1046    N        0.12049    0.51619    0.85671    1.000
    Si1047   Si       0.21567    0.56442    0.86342    1.000
    N1048    N        0.17849    0.55047    0.84105    1.000
    N1049    N        0.23051    0.59185    0.83364    1.000
    Si1050   Si       0.15039    0.54204    0.87440    1.000
    N1051    N        0.16438    0.61964    0.82413    1.000
    Si1052   Si       0.20713    0.62601    0.82099    1.000
    Si1053   Si       0.07226    0.65435    0.83949    1.000
    Si1054   Si       0.09772    0.75199    0.82523    1.000
    N1055    N        0.99505    0.75639    0.86964    1.000
    N1056    N        0.10933    0.64365    0.82001    1.000
    N1057    N        0.16342    0.69446    0.83505    1.000
    Si1058   Si       0.14465    0.65400    0.84438    1.000
    Si1059   Si       0.16371    0.72715    0.86571    1.000
    N1060    N        0.13001    0.75404    0.85526    1.000
    N1061    N        0.20782    0.72976    0.86021    1.000
    N1062    N        0.22354    0.65905    0.84652    1.000
    Si1063   Si       0.20814    0.69567    0.83309    1.000
    Si1064   Si       0.06280    0.53325    0.92063    1.000
    N1065    N        0.04310    0.57214    0.90498    1.000
    Si1066   Si       0.05500    0.61372    0.89569    1.000
    N1067    N        0.09494    0.61719    0.91634    1.000
    Si1068   Si       0.99387    0.61800    0.91946    1.000
    N1069    N        0.05049    0.51394    0.87946    1.000
    N1070    N        0.17847    0.51966    0.89864    1.000
    N1071    N        0.20764    0.58470    0.90271    1.000
    N1072    N        0.14037    0.56776    0.90887    1.000
    Si1073   Si       0.18057    0.55800    0.92320    1.000
    Si1074   Si       0.22048    0.61729    0.93405    1.000
    Si1075   Si       0.11569    0.58514    0.93959    1.000
    N1076    N        0.03048    0.64104    0.91696    1.000
    N1077    N        0.01171    0.70574    0.91664    1.000
    Si1078   Si       0.00572    0.74809    0.91016    1.000
    Si1079   Si       0.10846    0.65817    0.90930    1.000
    N1080    N        0.08608    0.67520    0.87449    1.000
    N1081    N        0.21163    0.65980    0.92599    1.000
    N1082    N        0.16436    0.71551    0.90779    1.000
    Si1083   Si       0.17243    0.67376    0.91673    1.000
    N1084    N        0.14653    0.65378    0.88653    1.000
    N1085    N        0.08722    0.55527    0.95239    1.000
    Si1086   Si       0.01212    0.55390    0.96292    1.000
    N1087    N        0.02844    0.51757    0.94418    1.000
    N1088    N        0.99841    0.59555    0.95747    1.000
    Si1089   Si       0.08232    0.54308    0.99250    1.000
    N1090    N        0.12862    0.59855    0.97952    1.000
    N1091    N        0.19482    0.54204    0.96132    1.000
    N1092    N        0.19408    0.60917    0.96566    1.000
    Si1093   Si       0.19960    0.57258    0.99272    1.000
    Si1094   Si       0.22444    0.51038    0.95650    1.000
    Si1095   Si       0.15898    0.63134    0.97705    1.000
    N1096    N        0.03182    0.69343    0.97563    1.000
    N1097    N        0.07451    0.74773    0.98411    1.000
    Si1098   Si       0.99560    0.71587    0.97003    1.000
    N1099    N        0.08729    0.68417    0.93967    1.000
    Si1100   Si       0.11537    0.75492    0.99561    1.000
    Si1101   Si       0.04169    0.68045    0.93365    1.000
    Si1102   Si       0.11785    0.68862    0.96931    1.000
    N1103    N        0.13481    0.72790    0.96750    1.000
    N1104    N        0.14521    0.66147    0.94976    1.000
    Si1105   Si       0.15623    0.74672    0.93548    1.000
    Si1106   Si       0.03543    0.80355    0.03113    1.000
    N1107    N        0.07829    0.80114    0.03534    1.000
    N1108    N        0.01973    0.84323    0.04393    1.000
    Si1109   Si       0.11048    0.83350    0.02383    1.000
    N1110    N        0.01401    0.77360    0.05352    1.000
    Si1111   Si       0.01385    0.87768    0.01628    1.000
    N1112    N        0.19081    0.78123    0.02279    1.000
    Si1113   Si       0.19120    0.86801    0.00694    1.000
    N1114    N        0.20251    0.86446    0.05063    1.000
    Si1115   Si       0.23516    0.78078    0.02337    1.000
    N1116    N        0.13917    0.81260    0.05160    1.000
    Si1117   Si       0.05540    0.99917    0.01323    1.000
    Si1118   Si       0.07273    0.93072    0.00614    1.000
    N1119    N        0.04820    0.90088    0.02890    1.000
    N1120    N        0.10235    0.93606    0.03710    1.000
    N1121    N        0.09691    0.00381    0.99540    1.000
    Si1122   Si       0.14365    0.92204    0.02946    1.000
    N1123    N        0.22855    0.00286    0.00209    1.000
    N1124    N        0.15090    0.88627    0.00450    1.000
    N1125    N        0.15838    0.95045    0.00101    1.000
    Si1126   Si       0.01306    0.85365    0.08758    1.000
    Si1127   Si       0.10427    0.78055    0.06452    1.000
    N1128    N        0.10520    0.80417    0.10222    1.000
    N1129    N        0.10105    0.86243    0.05753    1.000
    Si1130   Si       0.99501    0.78766    0.08966    1.000
    N1131    N        0.04743    0.87839    0.09567    1.000
    N1132    N        0.01899    0.81815    0.11278    1.000
    Si1133   Si       0.12504    0.83850    0.08483    1.000
    N1134    N        0.21138    0.80272    0.08548    1.000
    N1135    N        0.15728    0.86122    0.10176    1.000
    Si1136   Si       0.23185    0.83660    0.06704    1.000
    Si1137   Si       0.17549    0.78791    0.06290    1.000
    Si1138   Si       0.07410    0.89658    0.06587    1.000
    N1139    N        0.08582    0.92652    0.09852    1.000
    Si1140   Si       0.09547    0.96108    0.07561    1.000
    N1141    N        0.99906    0.98558    0.07058    1.000
    Si1142   Si       0.03574    0.00331    0.08061    1.000
    N1143    N        0.06744    0.98981    0.05589    1.000
    N1144    N        0.16481    0.92256    0.06786    1.000
    Si1145   Si       0.16782    0.95690    0.09412    1.000
    N1146    N        0.20339    0.98000    0.07755    1.000
    Si1147   Si       0.18415    0.88748    0.08241    1.000
    N1148    N        0.13211    0.98199    0.08721    1.000
    N1149    N        0.06136    0.78011    0.15464    1.000
    Si1150   Si       0.03469    0.81397    0.15356    1.000
    Si1151   Si       0.09464    0.77319    0.12962    1.000
    N1152    N        0.10474    0.86926    0.14097    1.000
    N1153    N        0.99526    0.86909    0.15814    1.000
    N1154    N        0.18687    0.76502    0.16235    1.000
    Si1155   Si       0.14831    0.86287    0.14394    1.000
    N1156    N        0.14359    0.82494    0.16362    1.000
    Si1157   Si       0.22887    0.77177    0.17271    1.000
    Si1158   Si       0.07384    0.89644    0.12808    1.000
    N1159    N        0.00075    0.93934    0.12503    1.000
    N1160    N        0.05466    0.91283    0.16194    1.000
    Si1161   Si       0.03661    0.95232    0.14474    1.000
    N1162    N        0.04792    0.98944    0.12065    1.000
    N1163    N        0.17484    0.95465    0.13591    1.000
    N1164    N        0.22376    0.99257    0.17088    1.000
    Si1165   Si       0.19350    0.91936    0.15113    1.000
    N1166    N        0.16377    0.89392    0.16761    1.000
    N1167    N        0.21015    0.90131    0.11599    1.000
    Si1168   Si       0.18118    0.99214    0.15880    1.000
    Si1169   Si       0.07887    0.77060    0.19323    1.000
    Si1170   Si       0.00246    0.77356    0.21520    1.000
    N1171    N        0.10072    0.80402    0.20834    1.000
    N1172    N        0.04753    0.77409    0.22376    1.000
    Si1173   Si       0.10136    0.84217    0.18101    1.000
    N1174    N        0.00038    0.80160    0.18156    1.000
    Si1175   Si       0.02869    0.87968    0.18251    1.000
    N1176    N        0.11397    0.87361    0.20918    1.000
    N1177    N        0.05556    0.84540    0.17644    1.000
    N1178    N        0.22879    0.80043    0.20541    1.000
    N1179    N        0.16204    0.78522    0.22259    1.000
    Si1180   Si       0.15219    0.78519    0.17973    1.000
    N1181    N        0.00518    0.89037    0.21717    1.000
    Si1182   Si       0.07356    0.93710    0.19396    1.000
    Si1183   Si       0.00276    0.97275    0.21248    1.000
    N1184    N        0.04119    0.96703    0.18625    1.000
    N1185    N        0.11658    0.94139    0.19186    1.000
    N1186    N        0.17250    0.91007    0.23050    1.000
    N1187    N        0.22258    0.92376    0.18266    1.000
    Si1188   Si       0.14212    0.90629    0.20123    1.000
    Si1189   Si       0.21807    0.90979    0.22341    1.000
    N1190    N        0.15836    0.99790    0.19620    1.000
    Si1191   Si       0.12349    0.97846    0.21146    1.000
    N1192    N        0.09746    0.77424    0.26930    1.000
    Si1193   Si       0.06128    0.80077    0.25683    1.000
    Si1194   Si       0.10386    0.86540    0.24969    1.000
    N1195    N        0.06683    0.84388    0.25464    1.000
    Si1196   Si       0.99054    0.78626    0.28586    1.000
    N1197    N        0.13019    0.83213    0.26716    1.000
    Si1198   Si       0.21934    0.85631    0.27649    1.000
    N1199    N        0.20492    0.81557    0.27552    1.000
    Si1200   Si       0.12533    0.79779    0.24441    1.000
    Si1201   Si       0.20145    0.78942    0.23922    1.000
    N1202    N        0.22953    0.86823    0.23410    1.000
    N1203    N        0.00419    0.94903    0.24848    1.000
    Si1204   Si       0.02781    0.91379    0.24521    1.000
    Si1205   Si       0.09708    0.93626    0.26506    1.000
    N1206    N        0.06917    0.92411    0.23539    1.000
    N1207    N        0.02258    0.89982    0.28606    1.000
    Si1208   Si       0.15754    0.97554    0.28364    1.000
    N1209    N        0.12062    0.89910    0.27204    1.000
    N1210    N        0.12880    0.96469    0.25316    1.000
    Si1211   Si       0.16261    0.90460    0.27343    1.000
    N1212    N        0.18738    0.00253    0.26575    1.000
    Si1213   Si       0.04771    0.79555    0.33245    1.000
    N1214    N        0.08839    0.80978    0.33572    1.000
    N1215    N        0.98713    0.86292    0.33766    1.000
    N1216    N        0.03309    0.79537    0.29000    1.000
    Si1217   Si       0.11266    0.78093    0.31160    1.000
    N1218    N        0.15557    0.79413    0.31230    1.000
    Si1219   Si       0.19434    0.78175    0.30083    1.000
    N1220    N        0.14073    0.85766    0.34125    1.000
    Si1221   Si       0.15466    0.83798    0.30277    1.000
    N1222    N        0.22006    0.76318    0.33127    1.000
    N1223    N        0.18136    0.87148    0.29120    1.000
    N1224    N        0.01184    0.95298    0.32269    1.000
    Si1225   Si       0.04241    0.92125    0.31718    1.000
    N1226    N        0.07781    0.94305    0.30218    1.000
    Si1227   Si       0.09790    0.96306    0.33678    1.000
    Si1228   Si       0.20382    0.93687    0.32712    1.000
    N1229    N        0.20901    0.97939    0.33949    1.000
    N1230    N        0.17872    0.94015    0.29305    1.000
    N1231    N        0.13482    0.98352    0.32300    1.000
    N1232    N        0.08780    0.86114    0.39231    1.000
    N1233    N        0.01609    0.80340    0.36027    1.000
    Si1234   Si       0.02821    0.76617    0.38576    1.000
    Si1235   Si       0.11013    0.83608    0.36236    1.000
    N1236    N        0.00706    0.85813    0.40635    1.000
    N1237    N        0.13659    0.80671    0.38464    1.000
    N1238    N        0.20697    0.84764    0.36886    1.000
    Si1239   Si       0.17250    0.87475    0.36448    1.000
    Si1240   Si       0.14238    0.76631    0.36998    1.000
    Si1241   Si       0.00626    0.88364    0.37071    1.000
    Si1242   Si       0.07249    0.90333    0.38441    1.000
    N1243    N        0.09848    0.93369    0.36776    1.000
    N1244    N        0.02497    0.97092    0.38671    1.000
    Si1245   Si       0.99274    0.95538    0.36281    1.000
    N1246    N        0.04207    0.89825    0.35327    1.000
    Si1247   Si       0.04669    0.00535    0.37575    1.000
    N1248    N        0.07882    0.00027    0.34887    1.000
    N1249    N        0.19056    0.91319    0.35972    1.000
    Si1250   Si       0.20688    0.92647    0.39968    1.000
    Si1251   Si       0.09486    0.86580    0.43693    1.000
    N1252    N        0.05721    0.85732    0.45754    1.000
    N1253    N        0.99849    0.78020    0.41971    1.000
    Si1254   Si       0.02521    0.87941    0.43992    1.000
    N1255    N        0.12546    0.83941    0.45069    1.000
    N1256    N        0.19328    0.81647    0.42950    1.000
    Si1257   Si       0.21520    0.78051    0.44288    1.000
    Si1258   Si       0.15334    0.82996    0.41919    1.000
    Si1259   Si       0.21720    0.84966    0.41151    1.000
    N1260    N        0.15975    0.87236    0.40736    1.000
    Si1261   Si       0.09139    0.00853    0.43647    1.000
    N1262    N        0.07296    0.97025    0.44243    1.000
    Si1263   Si       0.03614    0.95483    0.42517    1.000
    N1264    N        0.00387    0.96075    0.45377    1.000
    N1265    N        0.04541    0.91218    0.41929    1.000
    N1266    N        0.11042    0.90729    0.44028    1.000
    Si1267   Si       0.09541    0.94123    0.46392    1.000
    N1268    N        0.18084    0.01056    0.45501    1.000
    Si1269   Si       0.15432    0.97939    0.43707    1.000
    N1270    N        0.17119    0.94141    0.42074    1.000
    N1271    N        0.22318    0.89163    0.42072    1.000
    Si1272   Si       0.15326    0.90353    0.43860    1.000
    N1273    N        0.23654    0.95275    0.45173    1.000
    N1274    N        0.12869    0.00689    0.41543    1.000
    N1275    N        0.09232    0.82227    0.50647    1.000
    Si1276   Si       0.05260    0.83137    0.49129    1.000
    N1277    N        0.02768    0.79858    0.48110    1.000
    Si1278   Si       0.09824    0.77761    0.50270    1.000
    Si1279   Si       0.13523    0.82450    0.49089    1.000
    N1280    N        0.13976    0.78141    0.49129    1.000
    N1281    N        0.15902    0.84358    0.51994    1.000
    N1282    N        0.24016    0.79317    0.47618    1.000
    Si1283   Si       0.23885    0.77993    0.51824    1.000
    Si1284   Si       0.99640    0.93182    0.48680    1.000
    N1285    N        0.07808    0.94174    0.50448    1.000
    N1286    N        0.04200    0.00775    0.52129    1.000
    N1287    N        0.99369    0.89173    0.46754    1.000
    Si1288   Si       0.22681    0.95515    0.49348    1.000
    N1289    N        0.19048    0.96200    0.51348    1.000
    N1290    N        0.13112    0.96516    0.47126    1.000
    N1291    N        0.23668    0.91217    0.49634    1.000
    Si1292   Si       0.14886    0.97617    0.50891    1.000
    Si1293   Si       0.15255    0.88700    0.51957    1.000
    N1294    N        0.16236    0.89745    0.47994    1.000
    Si1295   Si       0.00055    0.84689    0.54551    1.000
    Si1296   Si       0.08499    0.85194    0.54037    1.000
    N1297    N        0.09319    0.83031    0.57809    1.000
    N1298    N        0.08820    0.76641    0.54272    1.000
    Si1299   Si       0.10345    0.78837    0.57567    1.000
    N1300    N        0.02087    0.76453    0.58128    1.000
    N1301    N        0.04094    0.85282    0.52886    1.000
    N1302    N        0.23220    0.85578    0.53734    1.000
    N1303    N        0.20190    0.79229    0.53843    1.000
    Si1304   Si       0.19265    0.83598    0.54605    1.000
    N1305    N        0.14582    0.77896    0.57875    1.000
    N1306    N        0.06593    0.94942    0.56674    1.000
    Si1307   Si       0.09713    0.92918    0.54277    1.000
    N1308    N        0.10837    0.88790    0.53275    1.000
    Si1309   Si       0.99442    0.92492    0.56375    1.000
    Si1310   Si       0.04691    0.96567    0.52736    1.000
    N1311    N        0.01040    0.94279    0.52688    1.000
    Si1312   Si       0.17725    0.94545    0.55343    1.000
    N1313    N        0.18363    0.90292    0.54606    1.000
    N1314    N        0.13603    0.95129    0.54181    1.000
    Si1315   Si       0.22728    0.89856    0.53816    1.000
    Si1316   Si       0.09704    0.85511    0.61282    1.000
    Si1317   Si       0.01751    0.86406    0.61576    1.000
    N1318    N        0.05793    0.85085    0.63188    1.000
    N1319    N        0.08322    0.76463    0.60824    1.000
    Si1320   Si       0.99342    0.79243    0.59789    1.000
    N1321    N        0.01127    0.79174    0.63773    1.000
    N1322    N        0.00537    0.83353    0.58567    1.000
    N1323    N        0.19678    0.78055    0.63309    1.000
    Si1324   Si       0.21762    0.81722    0.62318    1.000
    Si1325   Si       0.15429    0.77689    0.62157    1.000
    N1326    N        0.13664    0.85489    0.63204    1.000
    Si1327   Si       0.17866    0.86765    0.61980    1.000
    N1328    N        0.19060    0.83984    0.58895    1.000
    Si1329   Si       0.06082    0.99044    0.64252    1.000
    N1330    N        0.09456    0.89937    0.60808    1.000
    N1331    N        0.01993    0.90341    0.59601    1.000
    N1332    N        0.05214    0.94914    0.63690    1.000
    Si1333   Si       0.06038    0.92468    0.60181    1.000
    N1334    N        0.18940    0.97031    0.58641    1.000
    Si1335   Si       0.12868    0.90155    0.63447    1.000
    Si1336   Si       0.18905    0.94712    0.62192    1.000
    N1337    N        0.23070    0.93658    0.62788    1.000
    N1338    N        0.16767    0.91033    0.61788    1.000
    Si1339   Si       0.05610    0.85687    0.67645    1.000
    N1340    N        0.09910    0.85187    0.68444    1.000
    N1341    N        0.03046    0.82859    0.69645    1.000
    Si1342   Si       0.99746    0.81893    0.66909    1.000
    Si1343   Si       0.13183    0.82984    0.66686    1.000
    N1344    N        0.12818    0.78834    0.65486    1.000
    Si1345   Si       0.14258    0.77333    0.69499    1.000
    N1346    N        0.15340    0.81527    0.70424    1.000
    N1347    N        0.21274    0.85647    0.64429    1.000
    N1348    N        0.09927    0.98985    0.66001    1.000
    Si1349   Si       0.03685    0.93723    0.67762    1.000
    N1350    N        0.99599    0.95335    0.68147    1.000
    N1351    N        0.04187    0.89565    0.68207    1.000
    Si1352   Si       0.00169    0.99280    0.70052    1.000
    Si1353   Si       0.09489    0.98870    0.70363    1.000
    Si1354   Si       0.15474    0.94647    0.68765    1.000
    N1355    N        0.13241    0.91258    0.67608    1.000
    N1356    N        0.17278    0.97214    0.65471    1.000
    Si1357   Si       0.03380    0.82490    0.73849    1.000
    N1358    N        0.99440    0.81178    0.74839    1.000
    Si1359   Si       0.09795    0.79543    0.75605    1.000
    N1360    N        0.10916    0.76960    0.72160    1.000
    N1361    N        0.11037    0.83690    0.75266    1.000
    N1362    N        0.04392    0.86005    0.75972    1.000
    N1363    N        0.05671    0.79215    0.75893    1.000
    Si1364   Si       0.15355    0.83499    0.74288    1.000
    N1365    N        0.15907    0.87638    0.72804    1.000
    N1366    N        0.23592    0.83837    0.76209    1.000
    Si1367   Si       0.12197    0.88319    0.70436    1.000
    N1368    N        0.01572    0.99746    0.74144    1.000
    Si1369   Si       0.03922    0.96179    0.74858    1.000
    N1370    N        0.09584    0.89987    0.73542    1.000
    Si1371   Si       0.10629    0.93726    0.74846    1.000
    N1372    N        0.05949    0.96268    0.70958    1.000
    N1373    N        0.01093    0.92926    0.76313    1.000
    Si1374   Si       0.21519    0.97715    0.72445    1.000
    Si1375   Si       0.15562    0.97331    0.75448    1.000
    Si1376   Si       0.17810    0.91048    0.74339    1.000
    N1377    N        0.18956    0.94175    0.71368    1.000
    N1378    N        0.12696    0.96526    0.72117    1.000
    N1379    N        0.00779    0.78940    0.80660    1.000
    Si1380   Si       0.03747    0.76251    0.78791    1.000
    Si1381   Si       0.08586    0.86923    0.76462    1.000
    N1382    N        0.11000    0.78330    0.79599    1.000
    Si1383   Si       0.21265    0.82117    0.79348    1.000
    Si1384   Si       0.15255    0.78913    0.80372    1.000
    N1385    N        0.17255    0.81581    0.77565    1.000
    N1386    N        0.22581    0.78238    0.80714    1.000
    Si1387   Si       0.01460    0.88738    0.77623    1.000
    N1388    N        0.09767    0.89164    0.80011    1.000
    N1389    N        0.02158    0.98468    0.80347    1.000
    Si1390   Si       0.06861    0.98268    0.80683    1.000
    N1391    N        0.07555    0.95518    0.77364    1.000
    Si1392   Si       0.00961    0.94250    0.80654    1.000
    N1393    N        0.02741    0.90128    0.81510    1.000
    N1394    N        0.14656    0.93121    0.76985    1.000
    Si1395   Si       0.20899    0.89069    0.81374    1.000
    Si1396   Si       0.13641    0.91041    0.80739    1.000
    N1397    N        0.19680    0.97942    0.76487    1.000
    N1398    N        0.20816    0.91026    0.77318    1.000
    N1399    N        0.14084    0.00578    0.77915    1.000
    Si1400   Si       0.21387    0.95089    0.79309    1.000
    Si1401   Si       0.02374    0.77957    0.84724    1.000
    N1402    N        0.03395    0.81484    0.86744    1.000
    N1403    N        0.07103    0.87805    0.86408    1.000
    N1404    N        0.05629    0.75880    0.82964    1.000
    Si1405   Si       0.03496    0.85791    0.87622    1.000
    N1406    N        0.15464    0.81099    0.84362    1.000
    Si1407   Si       0.16789    0.85155    0.84367    1.000
    N1408    N        0.21037    0.84457    0.83089    1.000
    Si1409   Si       0.13176    0.79231    0.87604    1.000
    N1410    N        0.16470    0.88089    0.81328    1.000
    N1411    N        0.00253    0.88588    0.87497    1.000
    Si1412   Si       0.06900    0.90519    0.83060    1.000
    N1413    N        0.06768    0.94670    0.83969    1.000
    N1414    N        0.09912    0.99914    0.83794    1.000
    Si1415   Si       0.10334    0.95915    0.85866    1.000
    N1416    N        0.20158    0.93201    0.82934    1.000
    Si1417   Si       0.17548    0.96106    0.84688    1.000
    N1418    N        0.19446    0.99699    0.82972    1.000
    N1419    N        0.13564    0.94238    0.83758    1.000
    Si1420   Si       0.05933    0.80846    0.90371    1.000
    N1421    N        0.03413    0.84544    0.91873    1.000
    N1422    N        0.04404    0.77025    0.91706    1.000
    N1423    N        0.09770    0.81863    0.88585    1.000
    Si1424   Si       0.10334    0.86228    0.88868    1.000
    N1425    N        0.09161    0.87901    0.92630    1.000
    N1426    N        0.20855    0.86270    0.92018    1.000
    N1427    N        0.14021    0.78335    0.91769    1.000
    Si1428   Si       0.16716    0.87549    0.91776    1.000
    N1429    N        0.14906    0.86861    0.87880    1.000
    N1430    N        0.03809    0.92797    0.92724    1.000
    Si1431   Si       0.00262    0.91333    0.90821    1.000
    Si1432   Si       0.08151    0.92278    0.92798    1.000
    N1433    N        0.10689    0.94674    0.89917    1.000
    N1434    N        0.03437    0.99724    0.93622    1.000
    Si1435   Si       0.21756    0.95970    0.90638    1.000
    Si1436   Si       0.14545    0.95450    0.91676    1.000
    N1437    N        0.17742    0.96104    0.88885    1.000
    N1438    N        0.23839    0.98737    0.88236    1.000
    Si1439   Si       0.06507    0.85228    0.95684    1.000
    Si1440   Si       0.05540    0.77822    0.96104    1.000
    N1441    N        0.02630    0.86452    0.97666    1.000
    N1442    N        0.02514    0.79363    0.98848    1.000
    N1443    N        0.08156    0.81036    0.94519    1.000
    Si1444   Si       0.99944    0.85483    0.94331    1.000
    N1445    N        0.09679    0.85392    0.98788    1.000
    N1446    N        0.20326    0.83329    0.98230    1.000
    N1447    N        0.13509    0.79388    0.98476    1.000
    Si1448   Si       0.17841    0.79520    0.98412    1.000
    N1449    N        0.14473    0.85062    0.94494    1.000
    Si1450   Si       0.23099    0.83733    0.94840    1.000
    Si1451   Si       0.12304    0.81173    0.94680    1.000
    N1452    N        0.19372    0.76342    0.95381    1.000
    Si1453   Si       0.23594    0.76047    0.94605    1.000
    N1454    N        0.09719    0.92083    0.97122    1.000
    Si1455   Si       0.02551    0.95972    0.95432    1.000
    N1456    N        0.04431    0.95986    0.99323    1.000
    Si1457   Si       0.12368    0.88422    0.96859    1.000
    N1458    N        0.15868    0.91415    0.93774    1.000
    N1459    N        0.21277    0.89946    0.98873    1.000
    N1460    N        0.14371    0.98667    0.94574    1.000
    Si1461   Si       0.18557    0.93049    0.97182    1.000
    Si1462   Si       0.13765    0.98685    0.98836    1.000
    N1463    N        0.21175    0.95873    0.95022    1.000
    N1464    N        0.28717    0.03878    0.02864    1.000
    Si1465   Si       0.29379    0.07875    0.01618    1.000
    Si1466   Si       0.35466    0.08320    0.02189    1.000
    N1467    N        0.25432    0.10250    0.04661    1.000
    N1468    N        0.32177    0.09543    0.04903    1.000
    Si1469   Si       0.25134    0.01690    0.03940    1.000
    N1470    N        0.38304    0.04991    0.03419    1.000
    N1471    N        0.38546    0.10971    0.02503    1.000
    Si1472   Si       0.47850    0.08938    0.03915    1.000
    N1473    N        0.44904    0.05785    0.05048    1.000
    N1474    N        0.44590    0.11915    0.04369    1.000
    Si1475   Si       0.41493    0.08670    0.05261    1.000
    Si1476   Si       0.31591    0.18774    0.01046    1.000
    N1477    N        0.29941    0.21154    0.04227    1.000
    N1478    N        0.28384    0.16082    0.01141    1.000
    N1479    N        0.35655    0.17467    0.01858    1.000
    Si1480   Si       0.26671    0.14514    0.04921    1.000
    Si1481   Si       0.27916    0.25102    0.03468    1.000
    N1482    N        0.23889    0.24550    0.05098    1.000
    Si1483   Si       0.39338    0.15090    0.01614    1.000
    N1484    N        0.47197    0.17847    0.02966    1.000
    N1485    N        0.37440    0.23534    0.03235    1.000
    N1486    N        0.40766    0.17131    0.05140    1.000
    Si1487   Si       0.30984    0.10933    0.08795    1.000
    N1488    N        0.34834    0.03207    0.09753    1.000
    N1489    N        0.28470    0.07654    0.10408    1.000
    Si1490   Si       0.24641    0.07815    0.08134    1.000
    N1491    N        0.34278    0.10697    0.11485    1.000
    N1492    N        0.40796    0.01092    0.08687    1.000
    Si1493   Si       0.44946    0.02853    0.08071    1.000
    N1494    N        0.40221    0.08237    0.09500    1.000
    Si1495   Si       0.37527    0.02085    0.06449    1.000
    N1496    N        0.47420    0.04926    0.11294    1.000
    Si1497   Si       0.30391    0.19126    0.08201    1.000
    N1498    N        0.29639    0.14894    0.08087    1.000
    N1499    N        0.27232    0.21023    0.10405    1.000
    N1500    N        0.34836    0.19753    0.08945    1.000
    N1501    N        0.40112    0.23149    0.08919    1.000
    Si1502   Si       0.37491    0.19838    0.05550    1.000
    Si1503   Si       0.44382    0.21980    0.09545    1.000
    Si1504   Si       0.44756    0.15859    0.05979    1.000
    N1505    N        0.46435    0.23728    0.06216    1.000
    N1506    N        0.45838    0.17851    0.09738    1.000
    Si1507   Si       0.28763    0.05941    0.14240    1.000
    N1508    N        0.30524    0.01974    0.15074    1.000
    N1509    N        0.24640    0.06165    0.15562    1.000
    N1510    N        0.25163    0.13342    0.15774    1.000
    N1511    N        0.30664    0.09084    0.16807    1.000
    N1512    N        0.37963    0.07252    0.15424    1.000
    Si1513   Si       0.41641    0.09139    0.13562    1.000
    Si1514   Si       0.46827    0.03623    0.15342    1.000
    N1515    N        0.47884    0.11418    0.13479    1.000
    N1516    N        0.43896    0.06639    0.16806    1.000
    N1517    N        0.41461    0.13182    0.14674    1.000
    Si1518   Si       0.36473    0.06993    0.11348    1.000
    Si1519   Si       0.27584    0.21680    0.14727    1.000
    N1520    N        0.31542    0.20235    0.16370    1.000
    Si1521   Si       0.32904    0.24430    0.17091    1.000
    N1522    N        0.23730    0.20764    0.16004    1.000
    N1523    N        0.35427    0.25519    0.13687    1.000
    N1524    N        0.28552    0.25292    0.17463    1.000
    N1525    N        0.47680    0.17895    0.16543    1.000
    Si1526   Si       0.48294    0.15608    0.12780    1.000
    N1527    N        0.39056    0.19661    0.15133    1.000
    Si1528   Si       0.48220    0.22145    0.15848    1.000
    Si1529   Si       0.37275    0.21905    0.11917    1.000
    N1530    N        0.45340    0.23918    0.13336    1.000
    Si1531   Si       0.39639    0.16050    0.17260    1.000
    N1532    N        0.26922    0.02675    0.21278    1.000
    Si1533   Si       0.27775    0.11790    0.18850    1.000
    N1534    N        0.25443    0.09545    0.21681    1.000
    N1535    N        0.36072    0.08506    0.21217    1.000
    Si1536   Si       0.34883    0.09977    0.17135    1.000
    N1537    N        0.40046    0.02105    0.20173    1.000
    N1538    N        0.46978    0.11796    0.20817    1.000
    Si1539   Si       0.40134    0.06437    0.19600    1.000
    Si1540   Si       0.47161    0.09492    0.17288    1.000
    Si1541   Si       0.33056    0.17421    0.19364    1.000
    N1542    N        0.29563    0.15029    0.21111    1.000
    Si1543   Si       0.26654    0.24586    0.21277    1.000
    N1544    N        0.35916    0.19127    0.22212    1.000
    N1545    N        0.35609    0.14177    0.17782    1.000
    Si1546   Si       0.46295    0.16034    0.20176    1.000
    N1547    N        0.47558    0.24440    0.19890    1.000
    N1548    N        0.41925    0.16436    0.20900    1.000
    N1549    N        0.30324    0.06523    0.25915    1.000
    Si1550   Si       0.26598    0.05885    0.24086    1.000
    Si1551   Si       0.37925    0.08911    0.25353    1.000
    Si1552   Si       0.45566    0.09920    0.24554    1.000
    N1553    N        0.46976    0.12383    0.27859    1.000
    N1554    N        0.48344    0.06429    0.24975    1.000
    N1555    N        0.37038    0.06343    0.28739    1.000
    N1556    N        0.38120    0.12979    0.26552    1.000
    N1557    N        0.41746    0.08295    0.23459    1.000
    N1558    N        0.34823    0.24076    0.27061    1.000
    Si1559   Si       0.30486    0.24152    0.26606    1.000
    N1560    N        0.24904    0.15456    0.27113    1.000
    N1561    N        0.27852    0.21395    0.24044    1.000
    Si1562   Si       0.26767    0.17183    0.23572    1.000
    N1563    N        0.48967    0.17670    0.23244    1.000
    Si1564   Si       0.36952    0.23250    0.23203    1.000
    N1565    N        0.46826    0.22879    0.27031    1.000
    N1566    N        0.41200    0.24210    0.23755    1.000
    Si1567   Si       0.38908    0.16558    0.24164    1.000
    Si1568   Si       0.42638    0.22490    0.27402    1.000
    N1569    N        0.40878    0.18480    0.27454    1.000
    N1570    N        0.30258    0.05475    0.32612    1.000
    Si1571   Si       0.29285    0.01266    0.32298    1.000
    N1572    N        0.28654    0.13019    0.33216    1.000
    Si1573   Si       0.32942    0.05087    0.29119    1.000
    Si1574   Si       0.29267    0.08939    0.35071    1.000
    N1575    N        0.44207    0.06933    0.30573    1.000
    Si1576   Si       0.40368    0.05277    0.31176    1.000
    Si1577   Si       0.45484    0.10919    0.31841    1.000
    N1578    N        0.40428    0.00827    0.31469    1.000
    Si1579   Si       0.47708    0.04595    0.28897    1.000
    N1580    N        0.28769    0.24600    0.30389    1.000
    Si1581   Si       0.30300    0.24603    0.34277    1.000
    N1582    N        0.34668    0.23211    0.33870    1.000
    Si1583   Si       0.24953    0.14176    0.31219    1.000
    N1584    N        0.35844    0.16465    0.32515    1.000
    Si1585   Si       0.32451    0.14577    0.34621    1.000
    Si1586   Si       0.36556    0.25527    0.30867    1.000
    Si1587   Si       0.43769    0.25470    0.33771    1.000
    N1588    N        0.42207    0.13756    0.32963    1.000
    N1589    N        0.40817    0.24738    0.30725    1.000
    Si1590   Si       0.39262    0.15345    0.30242    1.000
    N1591    N        0.47317    0.22912    0.33816    1.000
    N1592    N        0.26530    0.08193    0.38240    1.000
    Si1593   Si       0.27164    0.04055    0.39466    1.000
    N1594    N        0.33302    0.10403    0.36293    1.000
    N1595    N        0.25706    0.01710    0.35860    1.000
    N1596    N        0.31300    0.03285    0.40843    1.000
    Si1597   Si       0.23855    0.10214    0.40972    1.000
    Si1598   Si       0.46533    0.00794    0.38979    1.000
    Si1599   Si       0.37078    0.09111    0.37463    1.000
    Si1600   Si       0.38969    0.03277    0.38443    1.000
    Si1601   Si       0.46768    0.10944    0.39487    1.000
    N1602    N        0.38868    0.12644    0.39645    1.000
    N1603    N        0.39392    0.06158    0.35350    1.000
    N1604    N        0.48237    0.10381    0.35299    1.000
    N1605    N        0.42438    0.01387    0.40222    1.000
    Si1606   Si       0.24330    0.20706    0.35224    1.000
    Si1607   Si       0.29891    0.19534    0.39707    1.000
    N1608    N        0.33207    0.17148    0.38435    1.000
    N1609    N        0.28500    0.21224    0.36057    1.000
    Si1610   Si       0.36228    0.19472    0.35588    1.000
    N1611    N        0.40170    0.19189    0.37188    1.000
    Si1612   Si       0.41760    0.15284    0.37344    1.000
    N1613    N        0.45374    0.14983    0.39930    1.000
    Si1614   Si       0.42105    0.22548    0.39318    1.000
    N1615    N        0.46273    0.21618    0.40212    1.000
    Si1616   Si       0.34442    0.04155    0.43774    1.000
    N1617    N        0.25710    0.10959    0.44908    1.000
    N1618    N        0.32432    0.12474    0.44073    1.000
    N1619    N        0.24620    0.01875    0.42247    1.000
    Si1620   Si       0.46145    0.05477    0.43971    1.000
    Si1621   Si       0.40025    0.09581    0.42931    1.000
    N1622    N        0.44066    0.08575    0.41891    1.000
    N1623    N        0.37386    0.06535    0.41258    1.000
    N1624    N        0.38706    0.10277    0.46830    1.000
    N1625    N        0.44258    0.02211    0.46474    1.000
    Si1626   Si       0.31895    0.25535    0.45505    1.000
    Si1627   Si       0.28551    0.14100    0.44709    1.000
    N1628    N        0.31030    0.22355    0.42789    1.000
    N1629    N        0.26997    0.17530    0.42431    1.000
    Si1630   Si       0.35125    0.14827    0.41715    1.000
    Si1631   Si       0.28436    0.20145    0.46040    1.000
    N1632    N        0.44016    0.19020    0.46209    1.000
    N1633    N        0.37532    0.16974    0.44546    1.000
    Si1634   Si       0.39805    0.20284    0.45910    1.000
    N1635    N        0.39900    0.23443    0.42901    1.000
    Si1636   Si       0.46481    0.18216    0.42729    1.000
    Si1637   Si       0.32132    0.03455    0.51027    1.000
    N1638    N        0.33150    0.12230    0.51613    1.000
    Si1639   Si       0.34290    0.10333    0.47668    1.000
    N1640    N        0.33219    0.06148    0.47515    1.000
    Si1641   Si       0.24467    0.02258    0.51752    1.000
    Si1642   Si       0.41192    0.11609    0.50298    1.000
    Si1643   Si       0.47747    0.02170    0.48999    1.000
    N1644    N        0.45436    0.12022    0.49849    1.000
    N1645    N        0.30964    0.22903    0.48889    1.000
    N1646    N        0.29314    0.16530    0.48293    1.000
    N1647    N        0.24911    0.22595    0.47146    1.000
    Si1648   Si       0.25341    0.24924    0.50742    1.000
    Si1649   Si       0.30177    0.15498    0.52440    1.000
    Si1650   Si       0.37072    0.25618    0.50875    1.000
    N1651    N        0.38319    0.21520    0.49902    1.000
    N1652    N        0.39737    0.15185    0.52125    1.000
    Si1653   Si       0.46981    0.19684    0.49500    1.000
    Si1654   Si       0.26563    0.05135    0.56476    1.000
    N1655    N        0.35778    0.03477    0.53544    1.000
    N1656    N        0.25928    0.09241    0.57552    1.000
    Si1657   Si       0.24296    0.13108    0.57196    1.000
    N1658    N        0.28275    0.04532    0.52708    1.000
    Si1659   Si       0.36718    0.12769    0.54221    1.000
    N1660    N        0.41372    0.02540    0.55867    1.000
    Si1661   Si       0.38420    0.05727    0.56062    1.000
    N1662    N        0.39328    0.09223    0.53610    1.000
    N1663    N        0.47520    0.02788    0.53385    1.000
    Si1664   Si       0.35342    0.18532    0.58233    1.000
    N1665    N        0.27080    0.23169    0.54251    1.000
    N1666    N        0.32549    0.18509    0.54839    1.000
    N1667    N        0.25820    0.14826    0.53606    1.000
    Si1668   Si       0.31264    0.22349    0.53274    1.000
    Si1669   Si       0.25408    0.23605    0.58010    1.000
    N1670    N        0.36497    0.14117    0.58198    1.000
    Si1671   Si       0.47458    0.18567    0.55856    1.000
    N1672    N        0.44593    0.20567    0.53201    1.000
    N1673    N        0.38972    0.20574    0.56904    1.000
    Si1674   Si       0.44893    0.24952    0.53800    1.000
    N1675    N        0.44446    0.25292    0.58074    1.000
    Si1676   Si       0.40342    0.19289    0.53135    1.000
    N1677    N        0.48510    0.14774    0.57823    1.000
    Si1678   Si       0.27533    0.10067    0.61672    1.000
    Si1679   Si       0.33090    0.05223    0.61095    1.000
    N1680    N        0.31288    0.08847    0.63159    1.000
    N1681    N        0.28554    0.03923    0.60116    1.000
    Si1682   Si       0.25452    0.04109    0.63572    1.000
    N1683    N        0.34097    0.01333    0.62795    1.000
    N1684    N        0.36804    0.07169    0.59734    1.000
    Si1685   Si       0.38272    0.11225    0.61018    1.000
    N1686    N        0.42547    0.11767    0.61670    1.000
    N1687    N        0.46969    0.02211    0.60480    1.000
    Si1688   Si       0.44372    0.01268    0.63879    1.000
    N1689    N        0.48549    0.08388    0.64076    1.000
    Si1690   Si       0.29055    0.25331    0.62828    1.000
    N1691    N        0.34818    0.20478    0.62120    1.000
    N1692    N        0.26492    0.14433    0.60760    1.000
    Si1693   Si       0.26978    0.17938    0.63062    1.000
    N1694    N        0.28061    0.21404    0.60690    1.000
    N1695    N        0.44668    0.18816    0.59849    1.000
    Si1696   Si       0.45562    0.14838    0.61174    1.000
    N1697    N        0.40231    0.23641    0.63409    1.000
    Si1698   Si       0.41986    0.22072    0.59613    1.000
    Si1699   Si       0.33600    0.09636    0.66907    1.000
    N1700    N        0.30354    0.10581    0.69884    1.000
    N1701    N        0.24904    0.08333    0.64656    1.000
    N1702    N        0.35881    0.06531    0.68652    1.000
    N1703    N        0.27517    0.01401    0.66042    1.000
    N1704    N        0.36891    0.12048    0.65113    1.000
    N1705    N        0.42938    0.10911    0.68552    1.000
    Si1706   Si       0.39661    0.04441    0.67857    1.000
    Si1707   Si       0.44352    0.09186    0.64692    1.000
    N1708    N        0.42328    0.05316    0.64396    1.000
    Si1709   Si       0.32583    0.20482    0.65716    1.000
    N1710    N        0.29886    0.17173    0.66007    1.000
    N1711    N        0.30086    0.23950    0.66678    1.000
    N1712    N        0.35652    0.19733    0.68651    1.000
    N1713    N        0.24888    0.14622    0.69848    1.000
    Si1714   Si       0.27524    0.25487    0.70035    1.000
    Si1715   Si       0.28997    0.14718    0.69710    1.000
    Si1716   Si       0.39412    0.20823    0.66689    1.000
    Si1717   Si       0.39585    0.13709    0.68042    1.000
    N1718    N        0.40690    0.24049    0.69766    1.000
    N1719    N        0.41767    0.17309    0.66895    1.000
    N1720    N        0.47723    0.21730    0.68165    1.000
    Si1721   Si       0.46202    0.17783    0.67559    1.000
    N1722    N        0.48272    0.15001    0.64834    1.000
    Si1723   Si       0.27966    0.07557    0.72277    1.000
    Si1724   Si       0.34524    0.04749    0.72467    1.000
    N1725    N        0.30194    0.03953    0.71898    1.000
    N1726    N        0.34508    0.08278    0.75435    1.000
    N1727    N        0.36071    0.01451    0.74559    1.000
    Si1728   Si       0.37286    0.11357    0.74958    1.000
    Si1729   Si       0.43697    0.08852    0.72168    1.000
    N1730    N        0.42473    0.04784    0.71313    1.000
    N1731    N        0.47871    0.09526    0.73143    1.000
    N1732    N        0.48269    0.02075    0.74936    1.000
    N1733    N        0.41155    0.09855    0.75501    1.000
    Si1734   Si       0.45211    0.01329    0.71753    1.000
    N1735    N        0.31003    0.16865    0.72882    1.000
    Si1736   Si       0.35140    0.17572    0.72225    1.000
    N1737    N        0.26425    0.21467    0.71735    1.000
    Si1738   Si       0.28664    0.19771    0.75095    1.000
    N1739    N        0.46179    0.24536    0.74333    1.000
    N1740    N        0.37333    0.13940    0.71590    1.000
    Si1741   Si       0.48026    0.21079    0.72520    1.000
    N1742    N        0.47290    0.16556    0.71554    1.000
    N1743    N        0.36866    0.20263    0.75250    1.000
    Si1744   Si       0.37658    0.23907    0.73124    1.000
    Si1745   Si       0.31442    0.08296    0.78555    1.000
    N1746    N        0.30771    0.11738    0.80798    1.000
    N1747    N        0.32894    0.04874    0.80983    1.000
    Si1748   Si       0.34894    0.01451    0.78645    1.000
    N1749    N        0.27561    0.07934    0.76561    1.000
    Si1750   Si       0.24210    0.06549    0.79117    1.000
    Si1751   Si       0.41151    0.11623    0.79534    1.000
    N1752    N        0.38711    0.02069    0.80862    1.000
    Si1753   Si       0.26673    0.13467    0.80012    1.000
    N1754    N        0.29565    0.22670    0.78361    1.000
    N1755    N        0.26341    0.17335    0.77976    1.000
    Si1756   Si       0.25182    0.21101    0.80147    1.000
    Si1757   Si       0.32733    0.23387    0.81635    1.000
    N1758    N        0.36456    0.25422    0.80615    1.000
    N1759    N        0.45051    0.13329    0.79834    1.000
    N1760    N        0.47704    0.20137    0.78750    1.000
    Si1761   Si       0.37252    0.18234    0.79206    1.000
    N1762    N        0.41233    0.19594    0.80454    1.000
    Si1763   Si       0.45007    0.17572    0.80966    1.000
    N1764    N        0.37715    0.13980    0.78440    1.000
    Si1765   Si       0.47062    0.24546    0.78664    1.000
    N1766    N        0.43658    0.25910    0.80995    1.000
    N1767    N        0.29999    0.07645    0.86333    1.000
    Si1768   Si       0.30105    0.11849    0.85160    1.000
    Si1769   Si       0.29563    0.04174    0.83836    1.000
    N1770    N        0.25370    0.03837    0.82353    1.000
    N1771    N        0.30145    0.01277    0.87044    1.000
    N1772    N        0.36473    0.03760    0.86767    1.000
    Si1773   Si       0.40222    0.11553    0.86556    1.000
    N1774    N        0.44413    0.10948    0.86667    1.000
    Si1775   Si       0.45454    0.06721    0.86805    1.000
    Si1776   Si       0.36943    0.05573    0.82923    1.000
    N1777    N        0.45369    0.04108    0.83135    1.000
    N1778    N        0.39223    0.09308    0.82967    1.000
    Si1779   Si       0.42527    0.00667    0.82396    1.000
    N1780    N        0.31569    0.24807    0.85548    1.000
    N1781    N        0.26672    0.14559    0.84296    1.000
    Si1782   Si       0.35386    0.17560    0.86510    1.000
    N1783    N        0.34711    0.19304    0.82600    1.000
    N1784    N        0.32892    0.14065    0.87641    1.000
    N1785    N        0.39438    0.15812    0.86761    1.000
    N1786    N        0.45770    0.17590    0.85098    1.000
    N1787    N        0.40743    0.22514    0.86372    1.000
    Si1788   Si       0.47718    0.13794    0.86199    1.000
    Si1789   Si       0.40119    0.23420    0.82091    1.000
    Si1790   Si       0.34890    0.12269    0.91131    1.000
    N1791    N        0.26094    0.06750    0.92032    1.000
    Si1792   Si       0.30066    0.05460    0.90259    1.000
    N1793    N        0.32843    0.02846    0.92554    1.000
    N1794    N        0.31845    0.09556    0.92884    1.000
    Si1795   Si       0.41064    0.07495    0.92235    1.000
    N1796    N        0.38037    0.09668    0.89830    1.000
    N1797    N        0.43385    0.04507    0.89948    1.000
    Si1798   Si       0.47877    0.11248    0.93408    1.000
    N1799    N        0.34587    0.20264    0.90061    1.000
    Si1800   Si       0.33068    0.24179    0.89541    1.000
    N1801    N        0.29847    0.24988    0.92240    1.000
    N1802    N        0.43715    0.24491    0.92255    1.000
    Si1803   Si       0.48176    0.24633    0.91647    1.000
    Si1804   Si       0.48252    0.17651    0.92836    1.000
    N1805    N        0.43586    0.17640    0.92018    1.000
    Si1806   Si       0.40691    0.25729    0.89155    1.000
    N1807    N        0.49109    0.14095    0.90208    1.000
    Si1808   Si       0.42493    0.18646    0.87822    1.000
    Si1809   Si       0.34267    0.06424    0.95067    1.000
    N1810    N        0.26519    0.08775    0.98537    1.000
    Si1811   Si       0.27851    0.10059    0.94658    1.000
    N1812    N        0.32964    0.07197    0.99024    1.000
    N1813    N        0.44997    0.03446    0.98119    1.000
    N1814    N        0.38638    0.06011    0.95460    1.000
    Si1815   Si       0.40563    0.04097    0.99017    1.000
    N1816    N        0.43330    0.10896    0.93471    1.000
    N1817    N        0.25583    0.13789    0.94677    1.000
    N1818    N        0.25306    0.20428    0.96485    1.000
    N1819    N        0.32142    0.20385    0.96822    1.000
    Si1820   Si       0.28854    0.23097    0.96033    1.000
    Si1821   Si       0.25088    0.16236    0.98166    1.000
    Si1822   Si       0.35575    0.19145    0.94323    1.000
    Si1823   Si       0.43004    0.21460    0.95454    1.000
    N1824    N        0.43144    0.24552    0.99145    1.000
    Si1825   Si       0.38861    0.24646    0.99325    1.000
    Si1826   Si       0.46285    0.16632    0.99033    1.000
    N1827    N        0.38813    0.21484    0.95942    1.000
    Si1828   Si       0.41157    0.14708    0.94021    1.000
    N1829    N        0.42128    0.16037    0.98348    1.000
    N1830    N        0.47341    0.20344    0.96526    1.000
    N1831    N        0.36826    0.14977    0.93866    1.000
    N1832    N        0.33142    0.32537    0.01802    1.000
    N1833    N        0.26509    0.35955    0.03520    1.000
    Si1834   Si       0.33857    0.36909    0.01055    1.000
    Si1835   Si       0.25611    0.32216    0.05153    1.000
    N1836    N        0.28773    0.28890    0.05538    1.000
    Si1837   Si       0.45640    0.26255    0.02390    1.000
    N1838    N        0.42069    0.28428    0.04205    1.000
    Si1839   Si       0.43815    0.32042    0.02861    1.000
    N1840    N        0.47371    0.30456    0.01520    1.000
    N1841    N        0.41502    0.34657    0.00180    1.000
    Si1842   Si       0.40988    0.37820    0.03251    1.000
    N1843    N        0.36784    0.37855    0.04175    1.000
    Si1844   Si       0.26761    0.38348    0.99969    1.000
    N1845    N        0.25495    0.46391    0.04299    1.000
    N1846    N        0.31818    0.47280    0.02019    1.000
    Si1847   Si       0.29131    0.48751    0.04931    1.000
    Si1848   Si       0.35586    0.49237    0.02226    1.000
    N1849    N        0.30819    0.39971    0.00105    1.000
    Si1850   Si       0.24521    0.45412    0.00180    1.000
    N1851    N        0.48876    0.43585    0.00690    1.000
    N1852    N        0.42550    0.41727    0.02444    1.000
    Si1853   Si       0.45213    0.45012    0.02684    1.000
    N1854    N        0.44789    0.48556    0.00172    1.000
    N1855    N        0.31959    0.34737    0.08840    1.000
    N1856    N        0.24738    0.33066    0.09415    1.000
    Si1857   Si       0.35422    0.37799    0.08226    1.000
    Si1858   Si       0.32523    0.31443    0.06061    1.000
    N1859    N        0.35792    0.29169    0.07801    1.000
    Si1860   Si       0.28205    0.34644    0.11290    1.000
    N1861    N        0.38551    0.36329    0.10644    1.000
    Si1862   Si       0.38865    0.26443    0.06263    1.000
    Si1863   Si       0.42309    0.34038    0.09861    1.000
    Si1864   Si       0.48064    0.36795    0.07134    1.000
    N1865    N        0.43710    0.35173    0.05979    1.000
    Si1866   Si       0.34994    0.45796    0.08630    1.000
    N1867    N        0.31064    0.47945    0.08570    1.000
    N1868    N        0.33905    0.41571    0.09466    1.000
    N1869    N        0.25020    0.45092    0.10776    1.000
    Si1870   Si       0.47170    0.44003    0.09907    1.000
    Si1871   Si       0.47657    0.50321    0.07501    1.000
    N1872    N        0.45081    0.46853    0.06902    1.000
    Si1873   Si       0.40839    0.48208    0.07880    1.000
    N1874    N        0.37630    0.46905    0.05271    1.000
    N1875    N        0.28986    0.32302    0.14861    1.000
    Si1876   Si       0.26507    0.29124    0.16588    1.000
    N1877    N        0.33870    0.38165    0.15628    1.000
    Si1878   Si       0.32163    0.34056    0.17087    1.000
    N1879    N        0.36124    0.31878    0.15609    1.000
    Si1880   Si       0.36847    0.29314    0.12101    1.000
    Si1881   Si       0.44220    0.28025    0.14092    1.000
    Si1882   Si       0.37789    0.36069    0.14827    1.000
    N1883    N        0.45997    0.35678    0.11723    1.000
    N1884    N        0.48170    0.30165    0.14962    1.000
    N1885    N        0.41358    0.30027    0.11609    1.000
    N1886    N        0.26353    0.50770    0.14145    1.000
    N1887    N        0.30618    0.45009    0.14535    1.000
    N1888    N        0.27463    0.38872    0.12723    1.000
    Si1889   Si       0.31307    0.40892    0.12895    1.000
    Si1890   Si       0.28332    0.47576    0.12082    1.000
    Si1891   Si       0.24205    0.41729    0.13408    1.000
    Si1892   Si       0.38387    0.49994    0.14929    1.000
    N1893    N        0.43825    0.42335    0.12115    1.000
    Si1894   Si       0.44621    0.38827    0.14595    1.000
    N1895    N        0.37954    0.47648    0.11397    1.000
    N1896    N        0.31938    0.32787    0.21345    1.000
    N1897    N        0.25134    0.31271    0.20060    1.000
    N1898    N        0.36582    0.38043    0.22079    1.000
    Si1899   Si       0.28309    0.31571    0.23221    1.000
    N1900    N        0.35189    0.25954    0.20307    1.000
    N1901    N        0.41919    0.28103    0.17829    1.000
    Si1902   Si       0.37727    0.29274    0.18825    1.000
    Si1903   Si       0.43900    0.26621    0.21428    1.000
    N1904    N        0.38450    0.31582    0.22534    1.000
    N1905    N        0.41235    0.37258    0.16911    1.000
    N1906    N        0.29438    0.39666    0.20034    1.000
    Si1907   Si       0.33615    0.40225    0.19699    1.000
    Si1908   Si       0.25396    0.40725    0.20765    1.000
    N1909    N        0.35083    0.44314    0.19733    1.000
    N1910    N        0.29259    0.48805    0.20149    1.000
    Si1911   Si       0.32436    0.47265    0.17883    1.000
    N1912    N        0.47884    0.46434    0.19915    1.000
    Si1913   Si       0.46240    0.42653    0.21362    1.000
    Si1914   Si       0.40857    0.38548    0.21123    1.000
    N1915    N        0.40551    0.48899    0.18548    1.000
    N1916    N        0.41940    0.42635    0.21445    1.000
    N1917    N        0.47465    0.40366    0.17829    1.000
    Si1918   Si       0.39146    0.45906    0.21318    1.000
    Si1919   Si       0.46901    0.49484    0.23047    1.000
    N1920    N        0.26696    0.34510    0.25849    1.000
    N1921    N        0.33259    0.33744    0.27732    1.000
    N1922    N        0.28580    0.27350    0.24134    1.000
    Si1923   Si       0.35295    0.34320    0.23835    1.000
    Si1924   Si       0.42173    0.32452    0.24899    1.000
    N1925    N        0.43187    0.36696    0.24337    1.000
    N1926    N        0.45635    0.30284    0.23508    1.000
    Si1927   Si       0.42335    0.37353    0.28853    1.000
    N1928    N        0.30926    0.45802    0.25967    1.000
    Si1929   Si       0.27960    0.43011    0.27586    1.000
    Si1930   Si       0.34699    0.46294    0.27973    1.000
    Si1931   Si       0.29984    0.49665    0.24273    1.000
    N1932    N        0.25054    0.41161    0.25171    1.000
    N1933    N        0.30505    0.39629    0.28798    1.000
    Si1934   Si       0.45813    0.43681    0.28188    1.000
    Si1935   Si       0.41085    0.49074    0.27909    1.000
    N1936    N        0.48288    0.41856    0.25101    1.000
    N1937    N        0.38115    0.46972    0.25464    1.000
    N1938    N        0.44820    0.47488    0.26184    1.000
    N1939    N        0.28527    0.35138    0.33502    1.000
    N1940    N        0.35425    0.36716    0.33423    1.000
    N1941    N        0.24692    0.29889    0.31951    1.000
    N1942    N        0.36451    0.29419    0.32733    1.000
    Si1943   Si       0.29332    0.35465    0.29136    1.000
    Si1944   Si       0.24752    0.26085    0.29747    1.000
    Si1945   Si       0.36386    0.33289    0.30867    1.000
    N1946    N        0.44649    0.36578    0.32584    1.000
    N1947    N        0.45941    0.29358    0.33580    1.000
    N1948    N        0.40247    0.33597    0.28690    1.000
    N1949    N        0.34684    0.50292    0.29895    1.000
    N1950    N        0.35651    0.43562    0.31132    1.000
    Si1951   Si       0.33275    0.40297    0.32149    1.000
    N1952    N        0.26154    0.45199    0.30778    1.000
    N1953    N        0.42025    0.41550    0.29397    1.000
    N1954    N        0.40807    0.47854    0.31995    1.000
    Si1955   Si       0.48499    0.38761    0.32593    1.000
    Si1956   Si       0.39714    0.43570    0.32500    1.000
    N1957    N        0.47938    0.43137    0.31846    1.000
    N1958    N        0.28995    0.28133    0.36635    1.000
    N1959    N        0.35338    0.28578    0.40219    1.000
    N1960    N        0.28322    0.33414    0.39646    1.000
    Si1961   Si       0.31130    0.29898    0.40015    1.000
    Si1962   Si       0.29703    0.37292    0.37231    1.000
    Si1963   Si       0.26674    0.31624    0.35412    1.000
    N1964    N        0.33301    0.36950    0.39548    1.000
    Si1965   Si       0.37342    0.37158    0.37338    1.000
    N1966    N        0.45841    0.34326    0.39152    1.000
    Si1967   Si       0.38060    0.29163    0.36847    1.000
    N1968    N        0.39959    0.33186    0.36823    1.000
    N1969    N        0.41175    0.26186    0.37235    1.000
    Si1970   Si       0.44044    0.33073    0.35220    1.000
    N1971    N        0.29937    0.48369    0.36019    1.000
    N1972    N        0.24989    0.45467    0.38615    1.000
    Si1973   Si       0.28013    0.48623    0.40044    1.000
    N1974    N        0.30323    0.41402    0.35283    1.000
    Si1975   Si       0.27573    0.44819    0.34891    1.000
    N1976    N        0.39222    0.41115    0.36194    1.000
    N1977    N        0.48359    0.45528    0.37949    1.000
    Si1978   Si       0.39471    0.43111    0.40119    1.000
    N1979    N        0.41129    0.46989    0.38509    1.000
    Si1980   Si       0.40032    0.49943    0.35659    1.000
    Si1981   Si       0.45057    0.46135    0.40508    1.000
    N1982    N        0.30072    0.29101    0.44202    1.000
    Si1983   Si       0.29690    0.36665    0.42929    1.000
    N1984    N        0.26399    0.34909    0.45619    1.000
    Si1985   Si       0.26678    0.30546    0.46180    1.000
    Si1986   Si       0.24072    0.33870    0.41638    1.000
    N1987    N        0.32400    0.38473    0.46110    1.000
    Si1988   Si       0.38093    0.27456    0.43461    1.000
    N1989    N        0.44656    0.36278    0.45024    1.000
    N1990    N        0.40721    0.30907    0.43586    1.000
    Si1991   Si       0.48308    0.36051    0.42237    1.000
    N1992    N        0.39185    0.37826    0.41422    1.000
    Si1993   Si       0.42231    0.34548    0.41668    1.000
    N1994    N        0.28454    0.45364    0.44096    1.000
    Si1995   Si       0.32974    0.46573    0.44546    1.000
    Si1996   Si       0.25226    0.42782    0.42128    1.000
    N1997    N        0.31938    0.50237    0.42437    1.000
    N1998    N        0.35656    0.43541    0.42472    1.000
    Si1999   Si       0.36277    0.39465    0.44228    1.000
    N2000    N        0.27107    0.39310    0.40605    1.000
    N2001    N        0.43170    0.42761    0.42568    1.000
    Si2002   Si       0.43104    0.40231    0.46071    1.000
    N2003    N        0.45415    0.49150    0.43275    1.000
    Si2004   Si       0.49061    0.49507    0.45701    1.000
    N2005    N        0.26692    0.28901    0.50012    1.000
    Si2006   Si       0.25426    0.37316    0.49198    1.000
    N2007    N        0.28603    0.36881    0.52119    1.000
    N2008    N        0.35811    0.26952    0.47013    1.000
    N2009    N        0.40998    0.26548    0.52469    1.000
    N2010    N        0.47525    0.28116    0.52432    1.000
    N2011    N        0.24921    0.41515    0.49097    1.000
    Si2012   Si       0.31639    0.39483    0.50437    1.000
    N2013    N        0.28723    0.49945    0.49008    1.000
    Si2014   Si       0.27344    0.45616    0.48514    1.000
    Si2015   Si       0.34247    0.46748    0.51604    1.000
    N2016    N        0.31169    0.43888    0.50253    1.000
    N2017    N        0.35569    0.48194    0.47861    1.000
    Si2018   Si       0.45204    0.42137    0.52823    1.000
    N2019    N        0.46253    0.42016    0.48617    1.000
    Si2020   Si       0.38370    0.40654    0.52017    1.000
    N2021    N        0.39194    0.40252    0.47790    1.000
    N2022    N        0.32074    0.32523    0.56541    1.000
    Si2023   Si       0.28372    0.35019    0.56015    1.000
    Si2024   Si       0.33952    0.28676    0.57048    1.000
    N2025    N        0.24900    0.32787    0.56963    1.000
    Si2026   Si       0.35452    0.35093    0.55362    1.000
    N2027    N        0.34160    0.25518    0.53973    1.000
    N2028    N        0.43529    0.32886    0.55962    1.000
    Si2029   Si       0.40592    0.29686    0.55537    1.000
    Si2030   Si       0.42259    0.36823    0.57424    1.000
    Si2031   Si       0.47617    0.31711    0.54911    1.000
    N2032    N        0.37681    0.32204    0.53172    1.000
    N2033    N        0.38057    0.28629    0.58764    1.000
    N2034    N        0.34875    0.38512    0.52892    1.000
    N2035    N        0.25918    0.50788    0.55812    1.000
    N2036    N        0.33056    0.49421    0.54670    1.000
    N2037    N        0.25007    0.43977    0.56070    1.000
    Si2038   Si       0.28379    0.42422    0.58461    1.000
    Si2039   Si       0.24498    0.47755    0.58428    1.000
    N2040    N        0.42230    0.39272    0.53834    1.000
    Si2041   Si       0.40593    0.45935    0.56660    1.000
    N2042    N        0.44032    0.46105    0.54146    1.000
    N2043    N        0.48555    0.40788    0.55441    1.000
    Si2044   Si       0.46794    0.49402    0.53897    1.000
    N2045    N        0.37553    0.44636    0.53690    1.000
    Si2046   Si       0.29526    0.36686    0.63111    1.000
    N2047    N        0.25695    0.26978    0.60584    1.000
    N2048    N        0.32548    0.26870    0.60884    1.000
    Si2049   Si       0.24712    0.31056    0.60835    1.000
    N2050    N        0.26842    0.33422    0.63817    1.000
    N2051    N        0.33482    0.35128    0.63740    1.000
    N2052    N        0.28731    0.38264    0.58919    1.000
    Si2053   Si       0.37357    0.36993    0.62771    1.000
    Si2054   Si       0.47238    0.27152    0.60767    1.000
    N2055    N        0.44810    0.37602    0.60810    1.000
    Si2056   Si       0.36659    0.26210    0.62221    1.000
    N2057    N        0.44807    0.28504    0.64089    1.000
    N2058    N        0.38099    0.36403    0.58568    1.000
    N2059    N        0.32061    0.51322    0.61079    1.000
    Si2060   Si       0.32783    0.42942    0.63435    1.000
    N2061    N        0.26777    0.46412    0.61947    1.000
    N2062    N        0.32261    0.44184    0.59332    1.000
    Si2063   Si       0.33979    0.48222    0.58733    1.000
    N2064    N        0.29246    0.40794    0.64878    1.000
    N2065    N        0.36822    0.41333    0.63479    1.000
    Si2066   Si       0.46498    0.41508    0.59354    1.000
    Si2067   Si       0.40679    0.43337    0.63740    1.000
    N2068    N        0.38320    0.48935    0.59104    1.000
    N2069    N        0.42608    0.43606    0.59820    1.000
    N2070    N        0.30519    0.30565    0.68650    1.000
    Si2071   Si       0.34336    0.31709    0.66720    1.000
    Si2072   Si       0.26666    0.31946    0.67904    1.000
    N2073    N        0.24418    0.27909    0.67844    1.000
    N2074    N        0.37248    0.28732    0.65683    1.000
    N2075    N        0.47344    0.35032    0.67126    1.000
    Si2076   Si       0.41303    0.27132    0.66357    1.000
    Si2077   Si       0.46659    0.30666    0.67316    1.000
    N2078    N        0.40301    0.35208    0.65862    1.000
    Si2079   Si       0.40208    0.33379    0.69743    1.000
    N2080    N        0.43140    0.30168    0.69802    1.000
    Si2081   Si       0.43982    0.37114    0.65021    1.000
    Si2082   Si       0.25570    0.43272    0.65043    1.000
    N2083    N        0.25299    0.45175    0.69097    1.000
    N2084    N        0.32421    0.46623    0.65620    1.000
    Si2085   Si       0.32709    0.47746    0.69746    1.000
    Si2086   Si       0.29274    0.49606    0.64100    1.000
    Si2087   Si       0.45290    0.42905    0.69585    1.000
    Si2088   Si       0.40712    0.47957    0.69452    1.000
    N2089    N        0.43235    0.41040    0.66356    1.000
    N2090    N        0.40456    0.47410    0.65323    1.000
    N2091    N        0.47732    0.45975    0.67901    1.000
    Si2092   Si       0.32243    0.29606    0.72614    1.000
    N2093    N        0.28408    0.27852    0.73816    1.000
    Si2094   Si       0.36160    0.34931    0.74373    1.000
    N2095    N        0.35900    0.32825    0.70475    1.000
    N2096    N        0.24709    0.34201    0.70870    1.000
    N2097    N        0.33969    0.31658    0.76455    1.000
    N2098    N        0.34078    0.25816    0.72306    1.000
    N2099    N        0.39698    0.27405    0.75174    1.000
    Si2100   Si       0.43003    0.26981    0.72636    1.000
    N2101    N        0.40481    0.35274    0.73766    1.000
    Si2102   Si       0.44004    0.37555    0.75043    1.000
    N2103    N        0.31773    0.44757    0.72869    1.000
    N2104    N        0.26183    0.40276    0.73995    1.000
    Si2105   Si       0.27331    0.44143    0.72977    1.000
    N2106    N        0.25957    0.46554    0.76426    1.000
    N2107    N        0.34857    0.38723    0.75851    1.000
    N2108    N        0.36662    0.48886    0.70937    1.000
    N2109    N        0.46431    0.39513    0.71979    1.000
    N2110    N        0.47681    0.49719    0.74189    1.000
    N2111    N        0.42694    0.45344    0.72221    1.000
    N2112    N        0.28670    0.36429    0.79249    1.000
    Si2113   Si       0.31049    0.32860    0.79497    1.000
    N2114    N        0.28922    0.29254    0.80890    1.000
    Si2115   Si       0.27595    0.26541    0.77812    1.000
    Si2116   Si       0.24464    0.37187    0.80267    1.000
    Si2117   Si       0.37136    0.28950    0.78172    1.000
    N2118    N        0.39283    0.31698    0.80900    1.000
    N2119    N        0.47014    0.35741    0.77441    1.000
    Si2120   Si       0.45960    0.36114    0.81712    1.000
    N2121    N        0.30841    0.42933    0.79840    1.000
    Si2122   Si       0.26666    0.44116    0.79806    1.000
    N2123    N        0.33844    0.50424    0.80022    1.000
    Si2124   Si       0.31749    0.38797    0.81850    1.000
    Si2125   Si       0.33873    0.42816    0.76457    1.000
    N2126    N        0.37131    0.44922    0.78445    1.000
    N2127    N        0.43319    0.48153    0.79129    1.000
    N2128    N        0.48167    0.44209    0.77576    1.000
    Si2129   Si       0.38164    0.49462    0.79534    1.000
    N2130    N        0.42504    0.40846    0.77572    1.000
    Si2131   Si       0.39407    0.41569    0.80340    1.000
    Si2132   Si       0.44148    0.44821    0.76459    1.000
    Si2133   Si       0.29065    0.28338    0.85081    1.000
    N2134    N        0.24804    0.27958    0.86074    1.000
    Si2135   Si       0.32887    0.34909    0.87256    1.000
    N2136    N        0.33663    0.34198    0.82751    1.000
    N2137    N        0.30812    0.30967    0.88116    1.000
    N2138    N        0.46931    0.31826    0.83360    1.000
    Si2139   Si       0.37989    0.35264    0.83383    1.000
    Si2140   Si       0.42822    0.29712    0.82758    1.000
    N2141    N        0.42389    0.29189    0.87154    1.000
    N2142    N        0.37224    0.34232    0.87680    1.000
    N2143    N        0.42039    0.37069    0.83154    1.000
    Si2144   Si       0.46432    0.30858    0.87875    1.000
    Si2145   Si       0.23783    0.50036    0.83771    1.000
    N2146    N        0.29999    0.38311    0.85654    1.000
    N2147    N        0.33786    0.46155    0.85478    1.000
    N2148    N        0.36170    0.39861    0.82928    1.000
    N2149    N        0.27331    0.47647    0.82679    1.000
    Si2150   Si       0.31742    0.46896    0.81730    1.000
    Si2151   Si       0.43586    0.48633    0.83550    1.000
    N2152    N        0.47862    0.39708    0.83333    1.000
    N2153    N        0.46938    0.46086    0.85181    1.000
    Si2154   Si       0.44735    0.42299    0.85394    1.000
    N2155    N        0.39474    0.50290    0.83625    1.000
    N2156    N        0.40916    0.43852    0.84013    1.000
    Si2157   Si       0.36968    0.43201    0.85693    1.000
    Si2158   Si       0.28918    0.29369    0.91729    1.000
    N2159    N        0.32070    0.36968    0.91308    1.000
    N2160    N        0.24881    0.35992    0.90592    1.000
    N2161    N        0.24664    0.29860    0.92460    1.000
    N2162    N        0.36557    0.26616    0.90403    1.000
    Si2163   Si       0.40781    0.32987    0.89456    1.000
    N2164    N        0.44986    0.34262    0.89937    1.000
    Si2165   Si       0.45430    0.37959    0.92086    1.000
    N2166    N        0.39277    0.31976    0.93562    1.000
    Si2167   Si       0.26860    0.45998    0.92837    1.000
    Si2168   Si       0.33258    0.41383    0.92146    1.000
    N2169    N        0.29074    0.42603    0.91395    1.000
    N2170    N        0.29165    0.49371    0.90571    1.000
    Si2171   Si       0.27464    0.39130    0.89017    1.000
    Si2172   Si       0.32725    0.48961    0.88603    1.000
    N2173    N        0.44281    0.41136    0.89431    1.000
    Si2174   Si       0.40813    0.42134    0.92042    1.000
    N2175    N        0.37062    0.41822    0.89918    1.000
    N2176    N        0.36699    0.49280    0.90633    1.000
    N2177    N        0.27507    0.35742    0.96559    1.000
    Si2178   Si       0.31783    0.35184    0.95237    1.000
    N2179    N        0.35498    0.36504    0.97130    1.000
    N2180    N        0.31807    0.30806    0.94812    1.000
    Si2181   Si       0.32374    0.29275    0.98951    1.000
    Si2182   Si       0.24417    0.33815    0.94346    1.000
    N2183    N        0.29236    0.26066    0.99310    1.000
    N2184    N        0.36269    0.27656    0.97741    1.000
    Si2185   Si       0.35781    0.29403    0.93793    1.000
    Si2186   Si       0.39565    0.35255    0.96342    1.000
    N2187    N        0.27497    0.45892    0.97206    1.000
    Si2188   Si       0.31340    0.44301    0.98731    1.000
    N2189    N        0.34232    0.44202    0.95335    1.000
    N2190    N        0.41157    0.45577    0.94335    1.000
    Si2191   Si       0.44059    0.48298    0.95852    1.000
    N2192    N        0.48225    0.48001    0.94452    1.000
    Si2193   Si       0.37161    0.47376    0.94591    1.000
    N2194    N        0.37283    0.49885    0.98213    1.000
    N2195    N        0.41641    0.38300    0.94232    1.000
    Si2196   Si       0.31632    0.56034    0.03182    1.000
    N2197    N        0.35144    0.53301    0.03803    1.000
    N2198    N        0.28617    0.52894    0.03828    1.000
    Si2199   Si       0.24650    0.54223    0.04189    1.000
    N2200    N        0.40110    0.56366    0.00782    1.000
    N2201    N        0.42349    0.62016    0.04253    1.000
    Si2202   Si       0.47563    0.51890    0.00463    1.000
    N2203    N        0.47833    0.53565    0.04717    1.000
    Si2204   Si       0.40918    0.60779    0.00233    1.000
    Si2205   Si       0.38908    0.55095    0.04768    1.000
    Si2206   Si       0.46459    0.63470    0.04500    1.000
    N2207    N        0.28354    0.65199    0.03190    1.000
    N2208    N        0.34746    0.68338    0.01128    1.000
    N2209    N        0.28345    0.71194    0.01260    1.000
    Si2210   Si       0.32060    0.67342    0.04477    1.000
    Si2211   Si       0.26642    0.67520    0.99856    1.000
    Si2212   Si       0.29137    0.75054    0.99595    1.000
    N2213    N        0.46565    0.67182    0.02695    1.000
    Si2214   Si       0.38341    0.70765    0.02081    1.000
    Si2215   Si       0.48943    0.70481    0.04491    1.000
    N2216    N        0.37304    0.74850    0.01366    1.000
    Si2217   Si       0.27214    0.59061    0.08906    1.000
    Si2218   Si       0.34128    0.60831    0.08516    1.000
    N2219    N        0.30912    0.58599    0.06705    1.000
    N2220    N        0.37814    0.58451    0.07751    1.000
    N2221    N        0.41365    0.52464    0.07293    1.000
    Si2222   Si       0.41509    0.60733    0.08188    1.000
    N2223    N        0.44423    0.58228    0.09674    1.000
    Si2224   Si       0.48009    0.60498    0.10764    1.000
    Si2225   Si       0.43224    0.54264    0.10747    1.000
    N2226    N        0.27140    0.63248    0.09829    1.000
    N2227    N        0.24997    0.69291    0.07185    1.000
    N2228    N        0.35085    0.65054    0.07039    1.000
    N2229    N        0.31404    0.70708    0.07178    1.000
    Si2230   Si       0.25567    0.65226    0.06373    1.000
    Si2231   Si       0.27925    0.72835    0.05509    1.000
    N2232    N        0.28346    0.75549    0.09706    1.000
    N2233    N        0.41308    0.64292    0.10547    1.000
    N2234    N        0.39859    0.70282    0.06222    1.000
    N2235    N        0.48641    0.63993    0.08213    1.000
    Si2236   Si       0.42684    0.73416    0.07930    1.000
    N2237    N        0.46906    0.72354    0.07959    1.000
    Si2238   Si       0.38383    0.67168    0.09012    1.000
    N2239    N        0.26482    0.57154    0.12644    1.000
    Si2240   Si       0.25459    0.58830    0.16404    1.000
    N2241    N        0.33449    0.62838    0.12584    1.000
    N2242    N        0.27810    0.62590    0.17186    1.000
    Si2243   Si       0.24107    0.53488    0.11422    1.000
    N2244    N        0.34623    0.50879    0.16826    1.000
    N2245    N        0.41014    0.53668    0.14448    1.000
    N2246    N        0.46970    0.62888    0.14317    1.000
    N2247    N        0.46973    0.52219    0.11343    1.000
    Si2248   Si       0.24258    0.70729    0.14387    1.000
    Si2249   Si       0.29225    0.64697    0.13335    1.000
    N2250    N        0.33676    0.73970    0.13525    1.000
    N2251    N        0.28279    0.69005    0.13439    1.000
    Si2252   Si       0.36503    0.64617    0.15193    1.000
    Si2253   Si       0.30549    0.72106    0.11243    1.000
    N2254    N        0.40537    0.74280    0.11725    1.000
    N2255    N        0.44147    0.69499    0.15133    1.000
    N2256    N        0.48731    0.75173    0.14335    1.000
    Si2257   Si       0.40309    0.71346    0.14959    1.000
    Si2258   Si       0.48308    0.70726    0.15456    1.000
    N2259    N        0.37535    0.68346    0.13324    1.000
    Si2260   Si       0.43438    0.65397    0.14278    1.000
    Si2261   Si       0.34895    0.54005    0.19849    1.000
    N2262    N        0.26143    0.55571    0.19130    1.000
    Si2263   Si       0.31598    0.61610    0.19485    1.000
    N2264    N        0.32964    0.57690    0.18949    1.000
    Si2265   Si       0.26128    0.51345    0.18455    1.000
    N2266    N        0.39070    0.55368    0.20862    1.000
    Si2267   Si       0.42126    0.53164    0.18767    1.000
    N2268    N        0.45864    0.53112    0.20954    1.000
    N2269    N        0.48918    0.59902    0.21427    1.000
    Si2270   Si       0.34445    0.68438    0.21569    1.000
    Si2271   Si       0.28248    0.72275    0.20585    1.000
    N2272    N        0.32547    0.71820    0.19936    1.000
    N2273    N        0.27423    0.68036    0.21712    1.000
    N2274    N        0.34128    0.65069    0.18742    1.000
    Si2275   Si       0.25063    0.65348    0.18984    1.000
    Si2276   Si       0.34435    0.74939    0.17589    1.000
    N2277    N        0.25212    0.73564    0.17787    1.000
    N2278    N        0.44609    0.65276    0.23054    1.000
    Si2279   Si       0.40598    0.64498    0.21499    1.000
    Si2280   Si       0.40424    0.72807    0.21939    1.000
    N2281    N        0.44655    0.73134    0.21971    1.000
    N2282    N        0.38611    0.68616    0.22114    1.000
    Si2283   Si       0.46720    0.69255    0.22442    1.000
    N2284    N        0.38747    0.74135    0.18113    1.000
    N2285    N        0.40477    0.63873    0.17294    1.000
    Si2286   Si       0.35685    0.53360    0.27042    1.000
    Si2287   Si       0.34901    0.61270    0.25816    1.000
    N2288    N        0.34659    0.57481    0.27766    1.000
    N2289    N        0.26734    0.51838    0.26420    1.000
    N2290    N        0.31127    0.62062    0.23816    1.000
    N2291    N        0.33377    0.52333    0.23653    1.000
    N2292    N        0.44287    0.58447    0.26425    1.000
    Si2293   Si       0.46623    0.61899    0.24607    1.000
    N2294    N        0.39972    0.53297    0.27136    1.000
    Si2295   Si       0.40620    0.57049    0.24780    1.000
    N2296    N        0.38709    0.61266    0.23690    1.000
    N2297    N        0.48799    0.62525    0.28340    1.000
    Si2298   Si       0.29207    0.65885    0.24827    1.000
    N2299    N        0.32758    0.68265    0.25632    1.000
    N2300    N        0.26133    0.64619    0.27870    1.000
    Si2301   Si       0.25633    0.75488    0.26945    1.000
    N2302    N        0.28260    0.75230    0.23715    1.000
    N2303    N        0.38588    0.75130    0.25143    1.000
    Si2304   Si       0.33796    0.58204    0.31998    1.000
    N2305    N        0.30739    0.54623    0.32979    1.000
    Si2306   Si       0.26851    0.61966    0.31213    1.000
    N2307    N        0.30746    0.60850    0.33648    1.000
    Si2308   Si       0.27208    0.53939    0.30164    1.000
    N2309    N        0.26049    0.58016    0.29585    1.000
    Si2310   Si       0.32865    0.50753    0.33878    1.000
    N2311    N        0.24072    0.52358    0.32747    1.000
    N2312    N        0.37764    0.58993    0.33890    1.000
    N2313    N        0.45719    0.58013    0.33702    1.000
    Si2314   Si       0.47151    0.58612    0.29619    1.000
    N2315    N        0.47903    0.50682    0.32803    1.000
    Si2316   Si       0.38102    0.63340    0.33216    1.000
    N2317    N        0.30528    0.67857    0.32120    1.000
    Si2318   Si       0.27158    0.70445    0.32980    1.000
    Si2319   Si       0.34252    0.67937    0.29659    1.000
    N2320    N        0.35346    0.63687    0.29563    1.000
    N2321    N        0.25343    0.71645    0.29283    1.000
    N2322    N        0.23824    0.63446    0.33905    1.000
    N2323    N        0.28644    0.74188    0.34605    1.000
    N2324    N        0.37932    0.69916    0.31162    1.000
    N2325    N        0.41979    0.64352    0.31763    1.000
    N2326    N        0.47534    0.68433    0.32321    1.000
    Si2327   Si       0.47918    0.71742    0.29343    1.000
    Si2328   Si       0.42519    0.68670    0.31968    1.000
    Si2329   Si       0.39600    0.73468    0.29108    1.000
    N2330    N        0.43529    0.71823    0.29072    1.000
    Si2331   Si       0.29369    0.57373    0.36188    1.000
    N2332    N        0.32064    0.56526    0.39417    1.000
    N2333    N        0.25289    0.57969    0.37539    1.000
    Si2334   Si       0.34647    0.53064    0.40414    1.000
    N2335    N        0.36026    0.51392    0.36626    1.000
    N2336    N        0.41233    0.59194    0.39740    1.000
    Si2337   Si       0.41559    0.57775    0.35577    1.000
    N2338    N        0.42487    0.53492    0.36231    1.000
    Si2339   Si       0.46722    0.54028    0.35188    1.000
    N2340    N        0.49227    0.54711    0.38655    1.000
    N2341    N        0.35533    0.73655    0.36393    1.000
    Si2342   Si       0.31570    0.74462    0.37652    1.000
    N2343    N        0.28540    0.65834    0.37946    1.000
    N2344    N        0.35660    0.66033    0.35771    1.000
    Si2345   Si       0.24181    0.65865    0.37412    1.000
    Si2346   Si       0.31633    0.64948    0.35121    1.000
    N2347    N        0.48222    0.73586    0.36809    1.000
    Si2348   Si       0.46740    0.75652    0.40477    1.000
    Si2349   Si       0.46763    0.69499    0.36482    1.000
    Si2350   Si       0.37721    0.70051    0.36630    1.000
    N2351    N        0.42253    0.69128    0.36546    1.000
    N2352    N        0.35208    0.60744    0.44424    1.000
    Si2353   Si       0.31465    0.59262    0.42855    1.000
    N2354    N        0.28083    0.61922    0.42579    1.000
    Si2355   Si       0.29019    0.52109    0.45038    1.000
    N2356    N        0.30204    0.56159    0.45727    1.000
    N2357    N        0.25866    0.51874    0.42091    1.000
    Si2358   Si       0.24288    0.60216    0.41222    1.000
    N2359    N        0.41831    0.59478    0.46130    1.000
    N2360    N        0.37256    0.54167    0.43636    1.000
    Si2361   Si       0.38580    0.58147    0.43384    1.000
    Si2362   Si       0.43887    0.61490    0.42677    1.000
    N2363    N        0.48334    0.60681    0.42723    1.000
    N2364    N        0.35279    0.74219    0.45276    1.000
    N2365    N        0.32464    0.66994    0.44819    1.000
    N2366    N        0.25387    0.68636    0.43007    1.000
    Si2367   Si       0.28911    0.66176    0.42268    1.000
    Si2368   Si       0.34285    0.70586    0.43139    1.000
    Si2369   Si       0.26693    0.72716    0.42808    1.000
    N2370    N        0.28593    0.74226    0.46825    1.000
    N2371    N        0.30796    0.72102    0.41138    1.000
    Si2372   Si       0.42094    0.69158    0.41099    1.000
    Si2373   Si       0.44409    0.73524    0.46684    1.000
    N2374    N        0.44514    0.72425    0.42546    1.000
    N2375    N        0.43529    0.65775    0.43626    1.000
    N2376    N        0.37824    0.69740    0.40932    1.000
    Si2377   Si       0.31486    0.57657    0.49579    1.000
    N2378    N        0.31347    0.61934    0.49940    1.000
    N2379    N        0.34838    0.54985    0.50192    1.000
    Si2380   Si       0.26503    0.52467    0.51920    1.000
    N2381    N        0.24104    0.60995    0.51099    1.000
    Si2382   Si       0.41172    0.61178    0.49919    1.000
    N2383    N        0.47121    0.56940    0.50590    1.000
    N2384    N        0.41298    0.52555    0.49117    1.000
    Si2385   Si       0.37203    0.52306    0.47663    1.000
    Si2386   Si       0.43470    0.55104    0.51764    1.000
    Si2387   Si       0.48081    0.60752    0.52429    1.000
    Si2388   Si       0.28022    0.72188    0.50538    1.000
    N2389    N        0.26815    0.67987    0.50447    1.000
    Si2390   Si       0.29819    0.65375    0.52043    1.000
    N2391    N        0.24600    0.73841    0.52785    1.000
    Si2392   Si       0.34288    0.63950    0.47324    1.000
    N2393    N        0.44873    0.63627    0.50835    1.000
    N2394    N        0.37578    0.74318    0.51979    1.000
    Si2395   Si       0.44866    0.66705    0.47757    1.000
    N2396    N        0.48062    0.74251    0.48480    1.000
    N2397    N        0.37894    0.63929    0.50293    1.000
    N2398    N        0.42709    0.70160    0.48930    1.000
    Si2399   Si       0.26690    0.59538    0.54360    1.000
    Si2400   Si       0.33204    0.53941    0.54213    1.000
    N2401    N        0.29238    0.56043    0.53124    1.000
    N2402    N        0.35759    0.55812    0.57274    1.000
    N2403    N        0.35912    0.62474    0.57176    1.000
    N2404    N        0.25018    0.58373    0.58193    1.000
    N2405    N        0.44734    0.53064    0.55378    1.000
    Si2406   Si       0.38687    0.59027    0.56883    1.000
    N2407    N        0.47805    0.60820    0.56785    1.000
    N2408    N        0.40952    0.58274    0.53166    1.000
    N2409    N        0.28093    0.63485    0.55541    1.000
    Si2410   Si       0.34456    0.71892    0.54231    1.000
    N2411    N        0.31047    0.74183    0.53065    1.000
    N2412    N        0.27327    0.70205    0.58461    1.000
    N2413    N        0.33132    0.67969    0.53012    1.000
    Si2414   Si       0.48366    0.72875    0.52670    1.000
    Si2415   Si       0.40862    0.71367    0.52668    1.000
    Si2416   Si       0.36615    0.65556    0.54146    1.000
    N2417    N        0.38793    0.68878    0.55566    1.000
    N2418    N        0.44333    0.73356    0.54302    1.000
    Si2419   Si       0.34074    0.55078    0.61200    1.000
    N2420    N        0.31197    0.58355    0.61611    1.000
    Si2421   Si       0.33516    0.61934    0.60983    1.000
    Si2422   Si       0.27271    0.57051    0.61959    1.000
    N2423    N        0.26319    0.53128    0.63594    1.000
    N2424    N        0.23917    0.58795    0.64362    1.000
    N2425    N        0.36755    0.61754    0.64011    1.000
    N2426    N        0.44024    0.52469    0.62778    1.000
    Si2427   Si       0.45231    0.62227    0.60271    1.000
    N2428    N        0.41640    0.59718    0.60080    1.000
    Si2429   Si       0.46937    0.52794    0.59384    1.000
    N2430    N        0.37729    0.54721    0.63484    1.000
    N2431    N        0.48502    0.61835    0.63109    1.000
    Si2432   Si       0.39730    0.58529    0.63929    1.000
    Si2433   Si       0.39916    0.50929    0.62760    1.000
    Si2434   Si       0.30329    0.72698    0.60733    1.000
    N2435    N        0.30965    0.65287    0.61976    1.000
    Si2436   Si       0.27682    0.65784    0.59348    1.000
    N2437    N        0.34319    0.72013    0.58793    1.000
    N2438    N        0.48969    0.71688    0.60667    1.000
    N2439    N        0.37609    0.68747    0.64114    1.000
    N2440    N        0.41642    0.72854    0.60290    1.000
    Si2441   Si       0.38126    0.70136    0.59953    1.000
    N2442    N        0.45358    0.66771    0.59855    1.000
    Si2443   Si       0.44872    0.70638    0.62230    1.000
    N2444    N        0.29827    0.51052    0.68991    1.000
    N2445    N        0.42356    0.58178    0.67191    1.000
    Si2446   Si       0.44362    0.54145    0.66925    1.000
    N2447    N        0.48648    0.53308    0.67660    1.000
    N2448    N        0.42075    0.52116    0.70081    1.000
    N2449    N        0.24517    0.74426    0.68215    1.000
    N2450    N        0.33030    0.66129    0.68485    1.000
    N2451    N        0.25798    0.67016    0.67138    1.000
    Si2452   Si       0.29899    0.67547    0.65774    1.000
    Si2453   Si       0.28815    0.74380    0.68043    1.000
    N2454    N        0.30467    0.71710    0.64835    1.000
    N2455    N        0.44269    0.70742    0.66543    1.000
    Si2456   Si       0.46983    0.69419    0.69645    1.000
    Si2457   Si       0.39617    0.71789    0.66897    1.000
    Si2458   Si       0.36734    0.65107    0.66483    1.000
    N2459    N        0.39774    0.64252    0.69419    1.000
    N2460    N        0.32853    0.61685    0.73662    1.000
    Si2461   Si       0.28210    0.61199    0.73398    1.000
    N2462    N        0.34561    0.54848    0.72294    1.000
    Si2463   Si       0.35524    0.58599    0.74464    1.000
    Si2464   Si       0.30161    0.54118    0.72149    1.000
    N2465    N        0.28540    0.57683    0.70722    1.000
    N2466    N        0.28743    0.53151    0.76115    1.000
    N2467    N        0.39893    0.59047    0.74324    1.000
    Si2468   Si       0.38316    0.52727    0.72335    1.000
    N2469    N        0.45850    0.60915    0.72437    1.000
    Si2470   Si       0.42001    0.60778    0.70700    1.000
    N2471    N        0.30442    0.73772    0.72244    1.000
    N2472    N        0.27987    0.65598    0.73270    1.000
    Si2473   Si       0.32488    0.65969    0.72882    1.000
    Si2474   Si       0.34601    0.72603    0.73576    1.000
    N2475    N        0.33988    0.68803    0.75595    1.000
    Si2476   Si       0.24421    0.65990    0.71084    1.000
    N2477    N        0.48975    0.72649    0.71786    1.000
    N2478    N        0.43575    0.74044    0.75558    1.000
    Si2479   Si       0.41234    0.70417    0.74351    1.000
    N2480    N        0.44765    0.68078    0.73216    1.000
    Si2481   Si       0.47386    0.71849    0.75827    1.000
    Si2482   Si       0.46410    0.64452    0.75564    1.000
    N2483    N        0.38353    0.71883    0.71169    1.000
    N2484    N        0.34405    0.57357    0.78466    1.000
    Si2485   Si       0.31594    0.54047    0.79345    1.000
    N2486    N        0.26342    0.59804    0.77133    1.000
    Si2487   Si       0.26904    0.59519    0.81439    1.000
    Si2488   Si       0.36579    0.59870    0.81412    1.000
    Si2489   Si       0.24867    0.50907    0.76602    1.000
    Si2490   Si       0.42590    0.58502    0.77669    1.000
    N2491    N        0.45655    0.55205    0.77439    1.000
    N2492    N        0.44903    0.62012    0.78841    1.000
    N2493    N        0.40410    0.57847    0.81376    1.000
    N2494    N        0.39610    0.51979    0.76300    1.000
    Si2495   Si       0.43974    0.51279    0.76231    1.000
    N2496    N        0.35455    0.75345    0.76885    1.000
    Si2497   Si       0.35817    0.68339    0.79467    1.000
    Si2498   Si       0.32877    0.75021    0.80645    1.000
    N2499    N        0.35702    0.64117    0.80818    1.000
    N2500    N        0.33585    0.71073    0.82152    1.000
    N2501    N        0.28886    0.75796    0.79296    1.000
    Si2502   Si       0.43214    0.69431    0.81044    1.000
    N2503    N        0.47110    0.68613    0.78994    1.000
    N2504    N        0.39955    0.69029    0.78227    1.000
    N2505    N        0.34071    0.59797    0.85124    1.000
    Si2506   Si       0.31311    0.56554    0.86073    1.000
    N2507    N        0.33459    0.52892    0.86361    1.000
    N2508    N        0.29145    0.56009    0.82418    1.000
    N2509    N        0.24165    0.53110    0.86925    1.000
    N2510    N        0.44648    0.59844    0.85814    1.000
    N2511    N        0.45197    0.52703    0.84384    1.000
    Si2512   Si       0.42652    0.56165    0.84804    1.000
    Si2513   Si       0.37752    0.51900    0.87170    1.000
    Si2514   Si       0.45639    0.62967    0.83057    1.000
    N2515    N        0.39834    0.55597    0.88057    1.000
    N2516    N        0.28543    0.63335    0.82870    1.000
    Si2517   Si       0.32689    0.63734    0.83900    1.000
    N2518    N        0.33316    0.66346    0.87239    1.000
    Si2519   Si       0.32220    0.70351    0.86166    1.000
    Si2520   Si       0.26557    0.65820    0.85712    1.000
    N2521    N        0.27744    0.70171    0.86438    1.000
    Si2522   Si       0.24810    0.73420    0.87708    1.000
    Si2523   Si       0.43760    0.72272    0.87713    1.000
    N2524    N        0.43559    0.73016    0.83306    1.000
    N2525    N        0.43081    0.66370    0.84110    1.000
    Si2526   Si       0.26778    0.53193    0.90493    1.000
    N2527    N        0.28782    0.57056    0.89580    1.000
    Si2528   Si       0.28427    0.60891    0.91351    1.000
    N2529    N        0.32412    0.61654    0.93108    1.000
    Si2530   Si       0.39751    0.58402    0.91244    1.000
    Si2531   Si       0.46386    0.60713    0.89606    1.000
    N2532    N        0.43954    0.58471    0.92369    1.000
    N2533    N        0.38764    0.62781    0.90164    1.000
    N2534    N        0.26643    0.64322    0.89690    1.000
    Si2535   Si       0.34828    0.64710    0.91055    1.000
    N2536    N        0.34410    0.73134    0.88783    1.000
    Si2537   Si       0.25229    0.67944    0.92377    1.000
    N2538    N        0.24608    0.72401    0.91960    1.000
    Si2539   Si       0.47604    0.68112    0.92069    1.000
    Si2540   Si       0.41422    0.65682    0.88298    1.000
    N2541    N        0.47482    0.71514    0.89385    1.000
    Si2542   Si       0.37321    0.71303    0.91698    1.000
    N2543    N        0.45308    0.64939    0.90416    1.000
    N2544    N        0.40525    0.69729    0.89240    1.000
    Si2545   Si       0.34179    0.59401    0.96467    1.000
    Si2546   Si       0.27081    0.57053    0.97296    1.000
    N2547    N        0.25892    0.60453    0.94837    1.000
    N2548    N        0.26001    0.53617    0.94729    1.000
    N2549    N        0.31071    0.57644    0.99087    1.000
    N2550    N        0.46748    0.55486    0.98532    1.000
    Si2551   Si       0.39237    0.53794    0.97240    1.000
    N2552    N        0.44749    0.62534    0.98378    1.000
    N2553    N        0.42565    0.52229    0.94839    1.000
    N2554    N        0.37165    0.56827    0.94582    1.000
    N2555    N        0.37062    0.62215    0.98389    1.000
    Si2556   Si       0.47946    0.59671    0.98869    1.000
    Si2557   Si       0.45609    0.55218    0.94535    1.000
    N2558    N        0.27859    0.67392    0.95838    1.000
    N2559    N        0.35815    0.67763    0.93741    1.000
    Si2560   Si       0.44530    0.66844    0.98660    1.000
    N2561    N        0.40573    0.68317    0.99185    1.000
    Si2562   Si       0.48511    0.73399    0.97535    1.000
    N2563    N        0.46927    0.69417    0.96236    1.000
    Si2564   Si       0.36627    0.66416    0.97771    1.000
    N2565    N        0.38450    0.74531    0.94092    1.000
    Si2566   Si       0.29062    0.83587    0.02061    1.000
    N2567    N        0.25148    0.81996    0.03133    1.000
    N2568    N        0.29899    0.76705    0.03637    1.000
    N2569    N        0.27713    0.87814    0.01596    1.000
    N2570    N        0.37440    0.81846    0.03301    1.000
    Si2571   Si       0.37955    0.77682    0.04585    1.000
    Si2572   Si       0.44532    0.80433    0.04218    1.000
    N2573    N        0.43166    0.81496    0.00264    1.000
    N2574    N        0.38962    0.88090    0.04013    1.000
    N2575    N        0.48809    0.80537    0.04837    1.000
    N2576    N        0.42331    0.76951    0.05478    1.000
    N2577    N        0.35469    0.98753    0.04350    1.000
    N2578    N        0.31402    0.93682    0.03252    1.000
    Si2579   Si       0.29076    0.90447    0.04868    1.000
    Si2580   Si       0.40979    0.91499    0.02603    1.000
    Si2581   Si       0.36884    0.97258    0.00547    1.000
    N2582    N        0.38169    0.93086    0.99789    1.000
    Si2583   Si       0.48470    0.92587    0.00195    1.000
    N2584    N        0.44649    0.90371    0.99963    1.000
    N2585    N        0.41773    0.94549    0.05311    1.000
    Si2586   Si       0.32540    0.84911    0.09102    1.000
    N2587    N        0.25449    0.85610    0.09856    1.000
    N2588    N        0.35255    0.77632    0.07935    1.000
    Si2589   Si       0.31017    0.78715    0.07399    1.000
    Si2590   Si       0.23839    0.77132    0.10044    1.000
    N2591    N        0.31176    0.82781    0.05705    1.000
    N2592    N        0.36744    0.85156    0.10310    1.000
    N2593    N        0.42965    0.83545    0.06788    1.000
    Si2594   Si       0.45134    0.85220    0.10045    1.000
    Si2595   Si       0.38729    0.84559    0.06522    1.000
    N2596    N        0.48721    0.86973    0.08066    1.000
    Si2597   Si       0.31609    0.97246    0.05731    1.000
    N2598    N        0.31449    0.89247    0.08304    1.000
    N2599    N        0.27130    0.98316    0.06178    1.000
    Si2600   Si       0.24176    0.95933    0.08353    1.000
    N2601    N        0.32172    0.96342    0.09988    1.000
    N2602    N        0.25611    0.91944    0.07162    1.000
    Si2603   Si       0.31948    0.92160    0.11721    1.000
    Si2604   Si       0.25387    0.90108    0.11110    1.000
    Si2605   Si       0.42352    0.96984    0.08543    1.000
    N2606    N        0.46473    0.98809    0.08121    1.000
    N2607    N        0.48205    0.92607    0.11689    1.000
    Si2608   Si       0.26488    0.83024    0.13210    1.000
    Si2609   Si       0.33013    0.81061    0.15210    1.000
    N2610    N        0.24410    0.79345    0.13833    1.000
    N2611    N        0.30635    0.81797    0.11722    1.000
    N2612    N        0.26044    0.85137    0.17083    1.000
    N2613    N        0.32913    0.84902    0.17389    1.000
    N2614    N        0.37156    0.79509    0.14769    1.000
    Si2615   Si       0.48030    0.79328    0.15592    1.000
    N2616    N        0.46340    0.81825    0.12490    1.000
    Si2617   Si       0.38536    0.87818    0.13195    1.000
    Si2618   Si       0.36785    0.76347    0.11655    1.000
    Si2619   Si       0.33191    0.99946    0.12399    1.000
    N2620    N        0.25014    0.95431    0.12530    1.000
    N2621    N        0.28876    0.90291    0.14103    1.000
    Si2622   Si       0.24944    0.95793    0.16750    1.000
    N2623    N        0.35904    0.91377    0.13610    1.000
    N2624    N        0.36140    0.98589    0.15230    1.000
    N2625    N        0.42799    0.88211    0.11999    1.000
    Si2626   Si       0.38237    0.94776    0.14804    1.000
    Si2627   Si       0.44694    0.91642    0.13781    1.000
    N2628    N        0.47458    0.99233    0.15154    1.000
    N2629    N        0.41913    0.94983    0.12343    1.000
    Si2630   Si       0.48365    0.97037    0.11618    1.000
    Si2631   Si       0.24799    0.83822    0.21012    1.000
    N2632    N        0.31798    0.78453    0.18510    1.000
    Si2633   Si       0.30460    0.78653    0.22615    1.000
    Si2634   Si       0.29493    0.87845    0.17654    1.000
    Si2635   Si       0.36560    0.84570    0.19716    1.000
    N2636    N        0.38607    0.81009    0.21163    1.000
    N2637    N        0.44668    0.78836    0.18603    1.000
    Si2638   Si       0.46101    0.77198    0.22352    1.000
    Si2639   Si       0.40396    0.78460    0.17700    1.000
    N2640    N        0.39125    0.87411    0.17563    1.000
    Si2641   Si       0.30149    0.00573    0.19222    1.000
    N2642    N        0.33674    0.99685    0.21764    1.000
    N2643    N        0.28525    0.96298    0.19125    1.000
    N2644    N        0.29835    0.89602    0.21564    1.000
    Si2645   Si       0.28878    0.93744    0.22584    1.000
    Si2646   Si       0.41326    0.90809    0.19879    1.000
    N2647    N        0.39218    0.94673    0.19036    1.000
    N2648    N        0.45148    0.91325    0.18041    1.000
    Si2649   Si       0.48375    0.92000    0.20800    1.000
    Si2650   Si       0.37382    0.98855    0.19655    1.000
    N2651    N        0.33406    0.79339    0.25615    1.000
    Si2652   Si       0.31191    0.86198    0.24387    1.000
    N2653    N        0.31650    0.85312    0.28887    1.000
    N2654    N        0.35393    0.86038    0.23527    1.000
    Si2655   Si       0.31250    0.80896    0.29149    1.000
    N2656    N        0.28603    0.82898    0.23020    1.000
    Si2657   Si       0.37674    0.79601    0.25157    1.000
    N2658    N        0.45026    0.78745    0.26306    1.000
    Si2659   Si       0.38800    0.86752    0.26014    1.000
    N2660    N        0.39591    0.82718    0.27624    1.000
    N2661    N        0.24623    0.93423    0.24679    1.000
    N2662    N        0.30195    0.95627    0.26337    1.000
    Si2663   Si       0.33344    0.98459    0.26023    1.000
    Si2664   Si       0.26121    0.95392    0.28163    1.000
    N2665    N        0.46662    0.94263    0.24018    1.000
    N2666    N        0.37121    0.89617    0.28848    1.000
    N2667    N        0.37106    0.96174    0.26343    1.000
    N2668    N        0.41862    0.89327    0.23973    1.000
    Si2669   Si       0.44376    0.91608    0.26712    1.000
    N2670    N        0.47213    0.00202    0.28426    1.000
    Si2671   Si       0.26202    0.77576    0.33264    1.000
    N2672    N        0.33247    0.79471    0.32660    1.000
    N2673    N        0.24649    0.86443    0.30920    1.000
    Si2674   Si       0.34066    0.88004    0.31381    1.000
    N2675    N        0.27406    0.78672    0.29283    1.000
    N2676    N        0.36787    0.86766    0.34586    1.000
    Si2677   Si       0.24348    0.84566    0.34776    1.000
    Si2678   Si       0.36628    0.77302    0.34259    1.000
    N2679    N        0.39911    0.76979    0.31488    1.000
    N2680    N        0.44240    0.82509    0.32914    1.000
    Si2681   Si       0.47370    0.85167    0.31532    1.000
    Si2682   Si       0.42510    0.79928    0.29582    1.000
    Si2683   Si       0.39917    0.83840    0.34826    1.000
    N2684    N        0.25087    0.93596    0.31929    1.000
    Si2685   Si       0.26814    0.89665    0.32817    1.000
    N2686    N        0.30912    0.90740    0.32577    1.000
    N2687    N        0.25925    0.99752    0.29637    1.000
    Si2688   Si       0.32627    0.94085    0.34804    1.000
    N2689    N        0.36378    0.95097    0.32807    1.000
    N2690    N        0.33152    0.00719    0.29747    1.000
    Si2691   Si       0.44173    0.98529    0.31182    1.000
    Si2692   Si       0.36533    0.99623    0.32674    1.000
    Si2693   Si       0.45854    0.91839    0.32421    1.000
    N2694    N        0.42888    0.94370    0.30113    1.000
    N2695    N        0.45602    0.88627    0.29606    1.000
    Si2696   Si       0.38470    0.93630    0.29364    1.000
    N2697    N        0.26346    0.80931    0.35819    1.000
    Si2698   Si       0.27103    0.79845    0.39852    1.000
    Si2699   Si       0.34351    0.81400    0.39628    1.000
    N2700    N        0.32362    0.85286    0.39662    1.000
    N2701    N        0.31395    0.78164    0.39971    1.000
    N2702    N        0.26841    0.87822    0.36892    1.000
    Si2703   Si       0.35396    0.88242    0.38559    1.000
    Si2704   Si       0.28548    0.87029    0.40821    1.000
    N2705    N        0.43978    0.78715    0.39229    1.000
    N2706    N        0.37932    0.80492    0.37036    1.000
    Si2707   Si       0.46313    0.82334    0.37322    1.000
    N2708    N        0.42419    0.84700    0.38431    1.000
    Si2709   Si       0.40574    0.80800    0.40569    1.000
    N2710    N        0.24191    0.95264    0.38734    1.000
    N2711    N        0.33387    0.92190    0.38660    1.000
    Si2712   Si       0.32081    0.99533    0.38610    1.000
    N2713    N        0.35894    0.00601    0.36855    1.000
    N2714    N        0.30280    0.97554    0.34865    1.000
    Si2715   Si       0.25577    0.97113    0.35000    1.000
    N2716    N        0.46230    0.92293    0.36823    1.000
    Si2717   Si       0.47887    0.88790    0.38966    1.000
    N2718    N        0.46240    0.98881    0.35033    1.000
    N2719    N        0.26162    0.83357    0.42151    1.000
    N2720    N        0.24735    0.76476    0.41602    1.000
    Si2721   Si       0.31616    0.76546    0.44408    1.000
    Si2722   Si       0.27020    0.82146    0.46268    1.000
    N2723    N        0.31237    0.80398    0.46207    1.000
    N2724    N        0.37182    0.81684    0.43180    1.000
    Si2725   Si       0.42001    0.86974    0.42154    1.000
    N2726    N        0.43015    0.84588    0.45689    1.000
    Si2727   Si       0.47789    0.84261    0.45536    1.000
    N2728    N        0.47987    0.84235    0.41056    1.000
    N2729    N        0.30037    0.97094    0.41669    1.000
    Si2730   Si       0.31780    0.93451    0.42481    1.000
    N2731    N        0.29070    0.90226    0.44097    1.000
    Si2732   Si       0.25707    0.97686    0.42052    1.000
    N2733    N        0.34847    0.93829    0.45604    1.000
    Si2734   Si       0.24824    0.91109    0.45308    1.000
    Si2735   Si       0.45997    0.94042    0.43031    1.000
    N2736    N        0.42430    0.95682    0.45149    1.000
    N2737    N        0.45040    0.89896    0.42347    1.000
    N2738    N        0.38014    0.88588    0.41994    1.000
    Si2739   Si       0.41386    0.99975    0.44239    1.000
    Si2740   Si       0.36834    0.89971    0.45955    1.000
    N2741    N        0.37054    0.00714    0.44687    1.000
    N2742    N        0.48316    0.97222    0.40891    1.000
    N2743    N        0.27563    0.85771    0.48829    1.000
    N2744    N        0.34119    0.86909    0.47477    1.000
    Si2745   Si       0.35035    0.82598    0.46725    1.000
    Si2746   Si       0.37876    0.76210    0.48021    1.000
    N2747    N        0.37566    0.80482    0.49620    1.000
    N2748    N        0.47070    0.80800    0.48525    1.000
    Si2749   Si       0.42319    0.81129    0.48398    1.000
    N2750    N        0.47931    0.87148    0.49053    1.000
    Si2751   Si       0.47575    0.83617    0.51817    1.000
    Si2752   Si       0.43378    0.87585    0.49165    1.000
    N2753    N        0.43029    0.84313    0.52210    1.000
    N2754    N        0.41875    0.77049    0.46701    1.000
    Si2755   Si       0.30485    0.88989    0.48259    1.000
    N2756    N        0.32202    0.99231    0.49425    1.000
    N2757    N        0.25741    0.98218    0.51011    1.000
    N2758    N        0.30545    0.92015    0.51436    1.000
    Si2759   Si       0.29597    0.96379    0.51676    1.000
    Si2760   Si       0.35833    0.97758    0.47643    1.000
    Si2761   Si       0.41735    0.94243    0.49223    1.000
    N2762    N        0.45062    0.92371    0.51440    1.000
    N2763    N        0.39096    0.97231    0.50607    1.000
    N2764    N        0.40156    0.90164    0.48425    1.000
    Si2765   Si       0.29993    0.77641    0.55680    1.000
    N2766    N        0.30427    0.86023    0.55597    1.000
    N2767    N        0.33920    0.79654    0.55811    1.000
    Si2768   Si       0.33526    0.83617    0.57488    1.000
    N2769    N        0.27040    0.80068    0.53905    1.000
    Si2770   Si       0.27164    0.84352    0.53138    1.000
    Si2771   Si       0.37337    0.78296    0.53562    1.000
    N2772    N        0.37273    0.85686    0.56754    1.000
    N2773    N        0.40717    0.79236    0.55994    1.000
    Si2774   Si       0.40883    0.83524    0.55970    1.000
    Si2775   Si       0.43136    0.76093    0.57663    1.000
    N2776    N        0.26044    0.91135    0.56760    1.000
    N2777    N        0.30803    0.97054    0.55808    1.000
    Si2778   Si       0.30185    0.90449    0.55488    1.000
    N2779    N        0.33532    0.91482    0.58078    1.000
    N2780    N        0.37253    0.97218    0.57221    1.000
    N2781    N        0.44831    0.96538    0.56684    1.000
    Si2782   Si       0.38491    0.99799    0.54043    1.000
    Si2783   Si       0.47098    0.93105    0.55350    1.000
    N2784    N        0.47958    0.89854    0.58291    1.000
    Si2785   Si       0.45301    0.01050    0.56681    1.000
    N2786    N        0.32894    0.82547    0.61729    1.000
    Si2787   Si       0.29782    0.79899    0.63062    1.000
    N2788    N        0.25998    0.81938    0.63179    1.000
    N2789    N        0.29249    0.76893    0.59970    1.000
    N2790    N        0.46529    0.77837    0.59696    1.000
    Si2791   Si       0.47144    0.82182    0.58956    1.000
    N2792    N        0.43559    0.84665    0.59153    1.000
    N2793    N        0.35974    0.88261    0.63111    1.000
    N2794    N        0.28257    0.89077    0.63140    1.000
    N2795    N        0.30016    0.95080    0.61937    1.000
    Si2796   Si       0.26567    0.92501    0.60883    1.000
    N2797    N        0.35890    0.94973    0.63143    1.000
    Si2798   Si       0.32259    0.91516    0.63660    1.000
    Si2799   Si       0.33482    0.95703    0.58976    1.000
    Si2800   Si       0.30641    0.98652    0.64243    1.000
    Si2801   Si       0.44313    0.88861    0.60200    1.000
    Si2802   Si       0.37441    0.98828    0.64328    1.000
    Si2803   Si       0.37246    0.89572    0.59143    1.000
    N2804    N        0.41356    0.98669    0.62278    1.000
    Si2805   Si       0.41135    0.95886    0.58982    1.000
    N2806    N        0.40973    0.91479    0.59096    1.000
    N2807    N        0.44558    0.89371    0.64456    1.000
    N2808    N        0.30467    0.78108    0.66996    1.000
    N2809    N        0.32482    0.84201    0.68174    1.000
    N2810    N        0.26411    0.86024    0.69305    1.000
    Si2811   Si       0.30462    0.87559    0.69884    1.000
    Si2812   Si       0.25759    0.86035    0.65169    1.000
    Si2813   Si       0.35360    0.84371    0.64804    1.000
    Si2814   Si       0.32018    0.80404    0.70233    1.000
    N2815    N        0.39126    0.83202    0.66370    1.000
    Si2816   Si       0.39294    0.79262    0.68484    1.000
    N2817    N        0.45933    0.84873    0.68997    1.000
    Si2818   Si       0.42278    0.86385    0.66892    1.000
    N2819    N        0.38559    0.75883    0.65835    1.000
    Si2820   Si       0.47124    0.80973    0.70209    1.000
    N2821    N        0.43050    0.78777    0.70554    1.000
    N2822    N        0.32242    0.91090    0.68082    1.000
    N2823    N        0.31732    0.97813    0.68409    1.000
    Si2824   Si       0.28469    0.00296    0.70160    1.000
    N2825    N        0.38852    0.00262    0.68030    1.000
    Si2826   Si       0.48368    0.91524    0.65548    1.000
    N2827    N        0.46268    0.00409    0.67622    1.000
    N2828    N        0.48310    0.91350    0.69904    1.000
    N2829    N        0.41500    0.88836    0.70628    1.000
    N2830    N        0.28876    0.80270    0.73352    1.000
    N2831    N        0.30336    0.86801    0.74142    1.000
    Si2832   Si       0.26772    0.84205    0.73498    1.000
    Si2833   Si       0.27791    0.76312    0.74913    1.000
    N2834    N        0.35987    0.79488    0.71642    1.000
    Si2835   Si       0.36936    0.79537    0.75905    1.000
    Si2836   Si       0.43947    0.78088    0.74778    1.000
    N2837    N        0.47811    0.80374    0.74618    1.000
    N2838    N        0.46726    0.87411    0.75374    1.000
    Si2839   Si       0.45703    0.88354    0.71468    1.000
    N2840    N        0.25929    0.98111    0.72924    1.000
    N2841    N        0.31155    0.93538    0.74545    1.000
    Si2842   Si       0.32935    0.94406    0.70783    1.000
    Si2843   Si       0.28534    0.96595    0.76285    1.000
    N2844    N        0.48192    0.94018    0.75811    1.000
    N2845    N        0.37156    0.94571    0.71624    1.000
    Si2846   Si       0.39197    0.91046    0.73508    1.000
    N2847    N        0.42567    0.98453    0.73555    1.000
    Si2848   Si       0.38573    0.98755    0.72017    1.000
    N2849    N        0.34452    0.81997    0.78438    1.000
    Si2850   Si       0.41853    0.83077    0.80104    1.000
    N2851    N        0.46334    0.83568    0.80603    1.000
    N2852    N        0.40779    0.86967    0.81528    1.000
    N2853    N        0.41019    0.80601    0.76786    1.000
    N2854    N        0.25602    0.95199    0.79178    1.000
    N2855    N        0.31264    0.98908    0.78604    1.000
    N2856    N        0.31433    0.90785    0.80783    1.000
    Si2857   Si       0.32195    0.89741    0.76709    1.000
    N2858    N        0.36540    0.89266    0.76488    1.000
    N2859    N        0.46660    0.90966    0.81963    1.000
    N2860    N        0.44738    0.97456    0.80579    1.000
    Si2861   Si       0.48302    0.90389    0.78044    1.000
    Si2862   Si       0.44412    0.95804    0.76643    1.000
    N2863    N        0.41706    0.92371    0.76941    1.000
    Si2864   Si       0.38988    0.90562    0.79747    1.000
    N2865    N        0.34343    0.84168    0.85242    1.000
    Si2866   Si       0.25435    0.85035    0.83949    1.000
    N2867    N        0.26154    0.77304    0.86526    1.000
    N2868    N        0.33171    0.77775    0.84005    1.000
    Si2869   Si       0.32528    0.81708    0.82158    1.000
    Si2870   Si       0.26690    0.78047    0.82289    1.000
    N2871    N        0.28130    0.82134    0.82320    1.000
    Si2872   Si       0.38466    0.82658    0.86605    1.000
    N2873    N        0.40767    0.80596    0.83625    1.000
    Si2874   Si       0.43430    0.77229    0.84522    1.000
    N2875    N        0.45989    0.86247    0.86813    1.000
    N2876    N        0.47591    0.78082    0.84402    1.000
    Si2877   Si       0.47667    0.82621    0.84708    1.000
    N2878    N        0.29557    0.95000    0.85094    1.000
    Si2879   Si       0.33326    0.92738    0.84227    1.000
    N2880    N        0.25232    0.88989    0.82416    1.000
    Si2881   Si       0.27589    0.92620    0.82076    1.000
    Si2882   Si       0.43736    0.88798    0.84137    1.000
    Si2883   Si       0.39748    0.95296    0.86139    1.000
    N2884    N        0.48030    0.93527    0.88193    1.000
    N2885    N        0.41844    0.91680    0.87012    1.000
    Si2886   Si       0.46584    0.95019    0.83884    1.000
    N2887    N        0.43071    0.98457    0.86435    1.000
    N2888    N        0.37343    0.93549    0.82765    1.000
    N2889    N        0.30580    0.79069    0.91004    1.000
    Si2890   Si       0.26859    0.80646    0.89460    1.000
    N2891    N        0.33446    0.84668    0.92834    1.000
    Si2892   Si       0.34287    0.86469    0.89054    1.000
    N2893    N        0.26150    0.84846    0.88282    1.000
    Si2894   Si       0.33687    0.77399    0.88341    1.000
    Si2895   Si       0.24863    0.88047    0.90743    1.000
    N2896    N        0.24215    0.80010    0.92761    1.000
    N2897    N        0.37143    0.79846    0.89623    1.000
    N2898    N        0.38769    0.86046    0.89692    1.000
    Si2899   Si       0.40243    0.77774    0.91843    1.000
    N2900    N        0.42246    0.81420    0.93353    1.000
    Si2901   Si       0.37986    0.83451    0.93387    1.000
    N2902    N        0.42675    0.76289    0.88628    1.000
    N2903    N        0.24284    0.92234    0.90123    1.000
    N2904    N        0.30947    0.96337    0.91532    1.000
    Si2905   Si       0.34436    0.93795    0.90778    1.000
    Si2906   Si       0.28085    0.97560    0.88209    1.000
    Si2907   Si       0.34224    0.00684    0.88585    1.000
    N2908    N        0.33651    0.90592    0.87958    1.000
    N2909    N        0.36471    0.96961    0.88320    1.000
    N2910    N        0.43832    0.98444    0.93515    1.000
    N2911    N        0.37631    0.91895    0.92987    1.000
    Si2912   Si       0.44805    0.00439    0.89934    1.000
    Si2913   Si       0.40563    0.89804    0.90700    1.000
    N2914    N        0.44192    0.89446    0.92955    1.000
    Si2915   Si       0.47260    0.89454    0.89937    1.000
    Si2916   Si       0.30591    0.86413    0.95817    1.000
    N2917    N        0.30420    0.82796    0.97911    1.000
    Si2918   Si       0.32315    0.80421    0.94951    1.000
    N2919    N        0.25301    0.76667    0.98544    1.000
    N2920    N        0.26422    0.86990    0.94904    1.000
    N2921    N        0.32109    0.76200    0.96829    1.000
    Si2922   Si       0.36426    0.76234    0.97475    1.000
    N2923    N        0.36853    0.80465    0.96478    1.000
    N2924    N        0.46989    0.77139    0.96056    1.000
    N2925    N        0.39545    0.86345    0.96675    1.000
    Si2926   Si       0.45309    0.80996    0.96492    1.000
    N2927    N        0.47480    0.84844    0.96525    1.000
    Si2928   Si       0.43866    0.87504    0.96786    1.000
    Si2929   Si       0.39145    0.82917    0.99549    1.000
    Si2930   Si       0.24521    0.97481    0.97280    1.000
    N2931    N        0.26981    0.94025    0.98243    1.000
    N2932    N        0.33325    0.97371    0.97834    1.000
    Si2933   Si       0.25443    0.89875    0.98484    1.000
    N2934    N        0.32926    0.89931    0.97230    1.000
    Si2935   Si       0.30959    0.99262    0.94739    1.000
    Si2936   Si       0.31249    0.93675    0.98977    1.000
    N2937    N        0.26829    0.00147    0.94993    1.000
    N2938    N        0.47836    0.96743    0.99193    1.000
    Si2939   Si       0.44402    0.99046    0.97665    1.000
    N2940    N        0.40303    0.99647    0.99332    1.000
    Si2941   Si       0.37233    0.90098    0.96921    1.000
    Si2942   Si       0.54228    0.09157    0.00971    1.000
    N2943    N        0.55703    0.06715    0.04363    1.000
    N2944    N        0.50053    0.07687    0.00445    1.000
    Si2945   Si       0.55943    0.02414    0.04413    1.000
    N2946    N        0.59625    0.01285    0.02212    1.000
    N2947    N        0.53707    0.13360    0.02189    1.000
    Si2948   Si       0.64274    0.09693    0.00514    1.000
    N2949    N        0.68394    0.11704    0.01065    1.000
    N2950    N        0.64270    0.06629    0.03553    1.000
    Si2951   Si       0.63689    0.02182    0.03641    1.000
    Si2952   Si       0.71470    0.08840    0.00740    1.000
    N2953    N        0.73579    0.07314    0.04478    1.000
    N2954    N        0.50794    0.24579    0.01792    1.000
    N2955    N        0.59547    0.17471    0.03377    1.000
    Si2956   Si       0.56052    0.19775    0.02936    1.000
    N2957    N        0.57160    0.23830    0.04234    1.000
    Si2958   Si       0.49530    0.21017    0.04564    1.000
    Si2959   Si       0.61291    0.25207    0.04428    1.000
    Si2960   Si       0.61735    0.16704    0.99754    1.000
    Si2961   Si       0.67099    0.15114    0.03511    1.000
    N2962    N        0.65654    0.17899    0.00362    1.000
    N2963    N        0.69496    0.22851    0.02637    1.000
    Si2964   Si       0.73517    0.21741    0.02035    1.000
    N2965    N        0.63225    0.24740    0.00665    1.000
    Si2966   Si       0.56372    0.08331    0.08374    1.000
    N2967    N        0.50387    0.10562    0.06985    1.000
    N2968    N        0.60661    0.06985    0.09247    1.000
    N2969    N        0.57072    0.12663    0.08184    1.000
    Si2970   Si       0.60932    0.02747    0.10176    1.000
    Si2971   Si       0.49878    0.08664    0.10754    1.000
    N2972    N        0.57218    0.01155    0.08499    1.000
    Si2973   Si       0.64194    0.08772    0.07507    1.000
    N2974    N        0.67643    0.09683    0.10108    1.000
    Si2975   Si       0.73959    0.03652    0.07114    1.000
    N2976    N        0.74055    0.06141    0.10712    1.000
    N2977    N        0.73027    0.13174    0.08910    1.000
    N2978    N        0.63702    0.12711    0.05637    1.000
    N2979    N        0.60476    0.17776    0.10336    1.000
    Si2980   Si       0.60397    0.15327    0.06950    1.000
    Si2981   Si       0.53022    0.14467    0.06584    1.000
    N2982    N        0.52361    0.15462    0.11378    1.000
    N2983    N        0.53064    0.18841    0.05890    1.000
    N2984    N        0.68576    0.17416    0.07011    1.000
    Si2985   Si       0.62164    0.21879    0.11142    1.000
    Si2986   Si       0.68932    0.14063    0.09999    1.000
    N2987    N        0.70373    0.24152    0.09409    1.000
    Si2988   Si       0.67946    0.21669    0.06680    1.000
    N2989    N        0.63733    0.22806    0.07069    1.000
    Si2990   Si       0.54122    0.05098    0.15289    1.000
    N2991    N        0.53899    0.07370    0.11704    1.000
    N2992    N        0.61260    0.01486    0.14307    1.000
    N2993    N        0.58380    0.13121    0.15572    1.000
    Si2994   Si       0.70301    0.07130    0.12532    1.000
    Si2995   Si       0.64854    0.04040    0.15726    1.000
    N2996    N        0.70653    0.08472    0.16493    1.000
    N2997    N        0.67834    0.03487    0.12679    1.000
    Si2998   Si       0.67156    0.11360    0.16658    1.000
    N2999    N        0.63931    0.08162    0.16701    1.000
    N3000    N        0.51945    0.24401    0.15118    1.000
    Si3001   Si       0.56085    0.23312    0.15298    1.000
    N3002    N        0.56486    0.19055    0.15265    1.000
    Si3003   Si       0.56678    0.15658    0.12174    1.000
    N3004    N        0.59167    0.24981    0.12375    1.000
    N3005    N        0.65775    0.21995    0.13683    1.000
    N3006    N        0.73247    0.22939    0.15115    1.000
    Si3007   Si       0.66271    0.18498    0.16190    1.000
    Si3008   Si       0.69489    0.24659    0.13616    1.000
    N3009    N        0.67342    0.14749    0.14050    1.000
    Si3010   Si       0.50447    0.04475    0.21600    1.000
    N3011    N        0.60209    0.11487    0.21843    1.000
    Si3012   Si       0.58040    0.03959    0.21721    1.000
    N3013    N        0.57329    0.06336    0.18017    1.000
    Si3014   Si       0.59761    0.09715    0.17581    1.000
    N3015    N        0.50233    0.06043    0.17503    1.000
    Si3016   Si       0.71902    0.07040    0.20538    1.000
    N3017    N        0.66890    0.12567    0.20875    1.000
    Si3018   Si       0.65505    0.02601    0.22435    1.000
    N3019    N        0.68060    0.06180    0.22821    1.000
    N3020    N        0.62048    0.05062    0.22789    1.000
    N3021    N        0.66380    0.01153    0.18602    1.000
    N3022    N        0.57107    0.24167    0.19608    1.000
    N3023    N        0.56845    0.17066    0.21681    1.000
    Si3024   Si       0.58948    0.16581    0.18059    1.000
    Si3025   Si       0.56360    0.21285    0.22851    1.000
    Si3026   Si       0.68776    0.16030    0.22441    1.000
    Si3027   Si       0.73829    0.19688    0.17929    1.000
    N3028    N        0.69727    0.18572    0.18926    1.000
    Si3029   Si       0.63029    0.20787    0.22519    1.000
    N3030    N        0.62692    0.18377    0.18795    1.000
    N3031    N        0.63747    0.25079    0.22425    1.000
    Si3032   Si       0.53488    0.07972    0.27046    1.000
    N3033    N        0.53324    0.12176    0.25602    1.000
    N3034    N        0.54368    0.05299    0.23528    1.000
    N3035    N        0.57903    0.00881    0.26689    1.000
    Si3036   Si       0.69504    0.08126    0.26428    1.000
    N3037    N        0.65915    0.10500    0.26831    1.000
    N3038    N        0.73100    0.09267    0.24049    1.000
    Si3039   Si       0.64333    0.09293    0.22743    1.000
    Si3040   Si       0.57361    0.13675    0.24279    1.000
    Si3041   Si       0.49174    0.22087    0.23597    1.000
    Si3042   Si       0.50146    0.15146    0.26751    1.000
    N3043    N        0.59154    0.14503    0.28095    1.000
    N3044    N        0.59886    0.21202    0.25641    1.000
    N3045    N        0.53140    0.23276    0.25086    1.000
    N3046    N        0.72977    0.15908    0.23795    1.000
    Si3047   Si       0.67567    0.20509    0.28291    1.000
    N3048    N        0.65056    0.23992    0.28936    1.000
    N3049    N        0.66145    0.18696    0.24609    1.000
    N3050    N        0.71182    0.22363    0.26062    1.000
    Si3051   Si       0.58448    0.11517    0.31254    1.000
    N3052    N        0.51118    0.06494    0.30484    1.000
    N3053    N        0.54693    0.12396    0.33185    1.000
    Si3054   Si       0.52183    0.08826    0.33865    1.000
    N3055    N        0.57413    0.01648    0.33498    1.000
    Si3056   Si       0.58884    0.03594    0.29863    1.000
    N3057    N        0.57513    0.07713    0.29603    1.000
    N3058    N        0.63139    0.03473    0.30784    1.000
    N3059    N        0.62397    0.10679    0.32862    1.000
    Si3060   Si       0.63966    0.06728    0.33767    1.000
    Si3061   Si       0.71683    0.05612    0.33699    1.000
    Si3062   Si       0.65359    0.13146    0.30203    1.000
    Si3063   Si       0.73456    0.12825    0.33369    1.000
    N3064    N        0.70845    0.05136    0.29306    1.000
    Si3065   Si       0.56542    0.23937    0.33066    1.000
    N3066    N        0.50978    0.17945    0.30208    1.000
    Si3067   Si       0.54088    0.16801    0.33362    1.000
    N3068    N        0.57362    0.19554    0.32126    1.000
    Si3069   Si       0.49716    0.21994    0.30270    1.000
    N3070    N        0.52585    0.25153    0.31269    1.000
    Si3071   Si       0.60338    0.18611    0.29000    1.000
    N3072    N        0.69081    0.13127    0.32367    1.000
    N3073    N        0.69696    0.20010    0.32347    1.000
    N3074    N        0.64228    0.17438    0.30809    1.000
    Si3075   Si       0.65938    0.18919    0.34529    1.000
    Si3076   Si       0.73526    0.20771    0.34108    1.000
    N3077    N        0.54202    0.06595    0.37135    1.000
    Si3078   Si       0.57549    0.03812    0.37058    1.000
    N3079    N        0.57282    0.01222    0.40548    1.000
    N3080    N        0.61886    0.05087    0.37283    1.000
    Si3081   Si       0.68152    0.12021    0.36953    1.000
    N3082    N        0.72437    0.12604    0.37860    1.000
    N3083    N        0.72706    0.01799    0.35087    1.000
    Si3084   Si       0.64579    0.05866    0.40678    1.000
    N3085    N        0.68076    0.07444    0.35116    1.000
    N3086    N        0.66550    0.09891    0.40533    1.000
    Si3087   Si       0.49818    0.22032    0.37632    1.000
    N3088    N        0.52935    0.18690    0.37353    1.000
    N3089    N        0.57717    0.24927    0.37211    1.000
    N3090    N        0.60080    0.19444    0.40163    1.000
    Si3091   Si       0.55731    0.18566    0.40856    1.000
    Si3092   Si       0.54862    0.25819    0.40285    1.000
    N3093    N        0.65623    0.15852    0.37618    1.000
    Si3094   Si       0.61353    0.23336    0.39017    1.000
    N3095    N        0.64186    0.22710    0.35802    1.000
    N3096    N        0.54905    0.06293    0.44460    1.000
    Si3097   Si       0.58198    0.03375    0.44230    1.000
    N3098    N        0.50870    0.10982    0.41510    1.000
    Si3099   Si       0.52313    0.06907    0.41019    1.000
    N3100    N        0.48814    0.04212    0.40741    1.000
    N3101    N        0.61810    0.05802    0.43877    1.000
    Si3102   Si       0.67021    0.12138    0.44028    1.000
    Si3103   Si       0.70994    0.01267    0.43510    1.000
    N3104    N        0.67654    0.02714    0.41305    1.000
    Si3105   Si       0.73790    0.12537    0.41964    1.000
    Si3106   Si       0.52413    0.13645    0.44559    1.000
    N3107    N        0.50154    0.17361    0.44845    1.000
    N3108    N        0.56297    0.15665    0.44098    1.000
    N3109    N        0.54285    0.22421    0.42662    1.000
    Si3110   Si       0.52768    0.20487    0.46349    1.000
    Si3111   Si       0.59617    0.15484    0.46995    1.000
    N3112    N        0.65853    0.20147    0.43614    1.000
    Si3113   Si       0.66461    0.24342    0.43921    1.000
    Si3114   Si       0.63671    0.17251    0.41233    1.000
    N3115    N        0.63339    0.14470    0.44478    1.000
    N3116    N        0.70361    0.25375    0.42125    1.000
    N3117    N        0.70711    0.14566    0.44217    1.000
    N3118    N        0.62863    0.25944    0.42112    1.000
    N3119    N        0.54092    0.04650    0.51575    1.000
    N3120    N        0.52641    0.11706    0.48455    1.000
    Si3121   Si       0.53227    0.07289    0.48172    1.000
    Si3122   Si       0.49389    0.12400    0.51237    1.000
    N3123    N        0.60305    0.12643    0.50208    1.000
    N3124    N        0.49080    0.06166    0.47221    1.000
    Si3125   Si       0.64860    0.11476    0.50186    1.000
    N3126    N        0.67690    0.09511    0.47291    1.000
    N3127    N        0.70868    0.02977    0.47592    1.000
    Si3128   Si       0.71587    0.07286    0.47749    1.000
    N3129    N        0.55221    0.20089    0.49885    1.000
    Si3130   Si       0.59167    0.21411    0.51340    1.000
    N3131    N        0.49575    0.23020    0.48525    1.000
    N3132    N        0.49307    0.16827    0.51801    1.000
    N3133    N        0.60552    0.25525    0.51110    1.000
    Si3134   Si       0.72491    0.17665    0.47093    1.000
    N3135    N        0.66823    0.15157    0.50884    1.000
    Si3136   Si       0.70157    0.24558    0.50219    1.000
    N3137    N        0.61583    0.18963    0.48957    1.000
    Si3138   Si       0.65693    0.18723    0.47828    1.000
    N3139    N        0.69786    0.20459    0.48938    1.000
    N3140    N        0.73867    0.15921    0.51065    1.000
    Si3141   Si       0.50834    0.05332    0.54566    1.000
    N3142    N        0.50742    0.09627    0.54672    1.000
    N3143    N        0.60332    0.03721    0.54780    1.000
    Si3144   Si       0.56668    0.02027    0.56633    1.000
    Si3145   Si       0.52268    0.12610    0.57400    1.000
    N3146    N        0.59174    0.10243    0.57426    1.000
    N3147    N        0.53043    0.04391    0.58256    1.000
    Si3148   Si       0.62240    0.07309    0.56478    1.000
    N3149    N        0.67104    0.02406    0.54108    1.000
    N3150    N        0.71799    0.12658    0.55776    1.000
    N3151    N        0.64855    0.09294    0.53725    1.000
    Si3152   Si       0.67592    0.03011    0.58316    1.000
    Si3153   Si       0.63007    0.00969    0.52967    1.000
    Si3154   Si       0.59153    0.13296    0.54318    1.000
    N3155    N        0.55099    0.15008    0.55148    1.000
    N3156    N        0.57795    0.21710    0.55466    1.000
    N3157    N        0.51029    0.21109    0.56389    1.000
    Si3158   Si       0.53306    0.18642    0.53706    1.000
    Si3159   Si       0.70060    0.22841    0.58144    1.000
    Si3160   Si       0.70125    0.16345    0.53592    1.000
    N3161    N        0.61644    0.16325    0.56185    1.000
    N3162    N        0.69049    0.25096    0.54474    1.000
    N3163    N        0.68487    0.18846    0.56837    1.000
    Si3164   Si       0.57919    0.10600    0.61751    1.000
    Si3165   Si       0.50211    0.04928    0.61787    1.000
    N3166    N        0.53640    0.11587    0.61286    1.000
    N3167    N        0.58179    0.06816    0.63703    1.000
    Si3168   Si       0.56902    0.02402    0.63795    1.000
    Si3169   Si       0.65879    0.09194    0.62746    1.000
    N3170    N        0.70402    0.09740    0.62980    1.000
    N3171    N        0.71959    0.03322    0.59845    1.000
    Si3172   Si       0.71932    0.05731    0.63373    1.000
    N3173    N        0.65011    0.06237    0.59795    1.000
    Si3174   Si       0.72942    0.12161    0.59722    1.000
    N3175    N        0.64547    0.13061    0.61469    1.000
    N3176    N        0.56217    0.20442    0.61725    1.000
    Si3177   Si       0.53439    0.23054    0.59586    1.000
    N3178    N        0.50348    0.24663    0.62482    1.000
    Si3179   Si       0.59476    0.19406    0.58774    1.000
    N3180    N        0.60606    0.24942    0.63884    1.000
    N3181    N        0.63100    0.19350    0.61631    1.000
    N3182    N        0.67239    0.25444    0.60567    1.000
    Si3183   Si       0.65185    0.16534    0.58879    1.000
    N3184    N        0.72140    0.15769    0.61976    1.000
    Si3185   Si       0.64553    0.23249    0.63306    1.000
    Si3186   Si       0.60694    0.06325    0.67129    1.000
    Si3187   Si       0.57440    0.12304    0.69502    1.000
    N3188    N        0.59673    0.01824    0.67274    1.000
    N3189    N        0.53090    0.12600    0.69004    1.000
    N3190    N        0.59137    0.12961    0.65282    1.000
    Si3191   Si       0.51165    0.11717    0.65150    1.000
    N3192    N        0.52715    0.01962    0.64656    1.000
    N3193    N        0.70677    0.03312    0.66901    1.000
    N3194    N        0.64926    0.07420    0.66550    1.000
    Si3195   Si       0.67604    0.05801    0.69684    1.000
    N3196    N        0.73017    0.13725    0.68461    1.000
    Si3197   Si       0.50835    0.24455    0.66764    1.000
    N3198    N        0.54666    0.23082    0.68076    1.000
    Si3199   Si       0.57904    0.21923    0.65550    1.000
    N3200    N        0.60485    0.18729    0.67569    1.000
    N3201    N        0.71841    0.19866    0.69992    1.000
    Si3202   Si       0.62536    0.15743    0.64698    1.000
    N3203    N        0.66678    0.15866    0.67017    1.000
    Si3204   Si       0.70029    0.13710    0.65191    1.000
    N3205    N        0.66607    0.22910    0.67083    1.000
    Si3206   Si       0.67696    0.19437    0.69122    1.000
    N3207    N        0.53604    0.04353    0.73352    1.000
    Si3208   Si       0.57648    0.05647    0.73740    1.000
    N3209    N        0.60585    0.02317    0.74227    1.000
    Si3210   Si       0.50038    0.06194    0.74928    1.000
    N3211    N        0.58940    0.08339    0.70494    1.000
    N3212    N        0.65347    0.07195    0.73453    1.000
    Si3213   Si       0.72177    0.11828    0.72341    1.000
    Si3214   Si       0.64880    0.03068    0.74765    1.000
    N3215    N        0.71342    0.07859    0.70869    1.000
    N3216    N        0.65923    0.01782    0.70582    1.000
    Si3217   Si       0.50054    0.13213    0.72227    1.000
    N3218    N        0.58868    0.14396    0.73211    1.000
    N3219    N        0.51904    0.20983    0.74024    1.000
    Si3220   Si       0.55107    0.23509    0.72428    1.000
    N3221    N        0.58969    0.21688    0.73516    1.000
    Si3222   Si       0.60845    0.18120    0.71843    1.000
    Si3223   Si       0.72862    0.23146    0.72506    1.000
    Si3224   Si       0.62820    0.23442    0.74770    1.000
    Si3225   Si       0.68106    0.18011    0.75713    1.000
    N3226    N        0.68973    0.13729    0.74468    1.000
    N3227    N        0.65046    0.19669    0.73022    1.000
    N3228    N        0.57553    0.08061    0.77552    1.000
    Si3229   Si       0.59169    0.12189    0.76912    1.000
    N3230    N        0.59626    0.02165    0.81107    1.000
    Si3231   Si       0.56665    0.05508    0.81012    1.000
    N3232    N        0.49900    0.07720    0.79110    1.000
    Si3233   Si       0.49409    0.11897    0.79437    1.000
    Si3234   Si       0.73770    0.09662    0.79170    1.000
    N3235    N        0.67979    0.01975    0.77292    1.000
    N3236    N        0.69645    0.08404    0.79187    1.000
    N3237    N        0.63228    0.11086    0.79028    1.000
    Si3238   Si       0.66701    0.10206    0.76400    1.000
    N3239    N        0.58479    0.14593    0.80539    1.000
    N3240    N        0.53885    0.19557    0.80725    1.000
    Si3241   Si       0.51336    0.18396    0.77291    1.000
    Si3242   Si       0.54111    0.23847    0.81823    1.000
    N3243    N        0.51301    0.14217    0.76268    1.000
    Si3244   Si       0.71039    0.24140    0.79535    1.000
    N3245    N        0.65880    0.17416    0.79430    1.000
    Si3246   Si       0.62763    0.14943    0.81631    1.000
    N3247    N        0.63630    0.23940    0.79120    1.000
    N3248    N        0.70692    0.21647    0.76016    1.000
    Si3249   Si       0.65432    0.20892    0.81876    1.000
    N3250    N        0.58457    0.07550    0.84530    1.000
    N3251    N        0.49773    0.06916    0.86708    1.000
    Si3252   Si       0.49688    0.05154    0.82723    1.000
    N3253    N        0.53311    0.02939    0.82087    1.000
    Si3254   Si       0.62529    0.08878    0.82847    1.000
    N3255    N        0.71063    0.07805    0.85900    1.000
    Si3256   Si       0.62302    0.01951    0.84424    1.000
    N3257    N        0.64712    0.05334    0.83479    1.000
    N3258    N        0.63426    0.12348    0.85251    1.000
    N3259    N        0.70120    0.01344    0.83070    1.000
    Si3260   Si       0.69009    0.05561    0.82663    1.000
    N3261    N        0.50999    0.13659    0.82967    1.000
    N3262    N        0.55776    0.17324    0.86390    1.000
    N3263    N        0.54019    0.24140    0.86187    1.000
    Si3264   Si       0.54841    0.15739    0.82623    1.000
    Si3265   Si       0.59894    0.18411    0.87613    1.000
    Si3266   Si       0.72149    0.22665    0.86088    1.000
    N3267    N        0.69286    0.22223    0.83083    1.000
    N3268    N        0.62443    0.18978    0.84344    1.000
    N3269    N        0.55146    0.05136    0.90791    1.000
    Si3270   Si       0.50997    0.04913    0.90279    1.000
    Si3271   Si       0.58849    0.06385    0.88873    1.000
    N3272    N        0.60559    0.09355    0.91549    1.000
    N3273    N        0.49150    0.07283    0.93535    1.000
    N3274    N        0.61108    0.02588    0.88627    1.000
    Si3275   Si       0.69938    0.08545    0.89882    1.000
    N3276    N        0.68676    0.04759    0.91320    1.000
    N3277    N        0.67654    0.12218    0.90486    1.000
    N3278    N        0.73093    0.09661    0.92826    1.000
    Si3279   Si       0.63449    0.12181    0.89612    1.000
    Si3280   Si       0.71363    0.01384    0.90504    1.000
    Si3281   Si       0.54064    0.20625    0.88724    1.000
    N3282    N        0.50213    0.20848    0.90274    1.000
    N3283    N        0.57846    0.21127    0.90735    1.000
    Si3284   Si       0.59155    0.25308    0.90461    1.000
    Si3285   Si       0.58815    0.17621    0.93726    1.000
    N3286    N        0.61543    0.15833    0.90800    1.000
    Si3287   Si       0.71597    0.13707    0.91877    1.000
    N3288    N        0.73331    0.21859    0.90536    1.000
    N3289    N        0.61825    0.25856    0.93730    1.000
    N3290    N        0.56193    0.07994    0.97387    1.000
    N3291    N        0.51960    0.02315    0.96784    1.000
    Si3292   Si       0.55651    0.04195    0.95015    1.000
    Si3293   Si       0.58878    0.10904    0.95514    1.000
    N3294    N        0.58782    0.01179    0.95146    1.000
    Si3295   Si       0.48761    0.05198    0.97382    1.000
    N3296    N        0.61273    0.12572    0.98684    1.000
    Si3297   Si       0.67414    0.04440    0.95610    1.000
    N3298    N        0.64855    0.07432    0.96906    1.000
    N3299    N        0.70885    0.05438    0.98196    1.000
    Si3300   Si       0.73859    0.02244    0.97686    1.000
    N3301    N        0.56181    0.14511    0.95173    1.000
    N3302    N        0.53606    0.19561    0.99121    1.000
    N3303    N        0.60273    0.19910    0.97175    1.000
    Si3304   Si       0.50844    0.22762    0.98049    1.000
    Si3305   Si       0.60123    0.24303    0.97421    1.000
    Si3306   Si       0.53149    0.15269    0.98060    1.000
    N3307    N        0.49096    0.14280    0.96505    1.000
    N3308    N        0.50872    0.25664    0.94981    1.000
    Si3309   Si       0.66540    0.22246    0.99441    1.000
    N3310    N        0.67720    0.22735    0.95329    1.000
    N3311    N        0.71821    0.16770    0.94970    1.000
    Si3312   Si       0.71599    0.21186    0.94412    1.000
    Si3313   Si       0.51108    0.32800    0.01123    1.000
    N3314    N        0.54047    0.30935    0.03510    1.000
    Si3315   Si       0.54781    0.26829    0.02342    1.000
    N3316    N        0.50007    0.36631    0.02777    1.000
    N3317    N        0.70270    0.35096    0.03381    1.000
    Si3318   Si       0.67096    0.37025    0.00971    1.000
    N3319    N        0.63876    0.33407    0.01056    1.000
    Si3320   Si       0.62129    0.33075    0.05105    1.000
    N3321    N        0.57625    0.48553    0.03741    1.000
    N3322    N        0.54994    0.42201    0.02915    1.000
    Si3323   Si       0.50985    0.40902    0.03368    1.000
    N3324    N        0.51336    0.49732    0.00165    1.000
    N3325    N        0.61468    0.42681    0.04826    1.000
    Si3326   Si       0.53830    0.50394    0.03784    1.000
    Si3327   Si       0.57762    0.44527    0.05553    1.000
    Si3328   Si       0.63412    0.44048    0.01079    1.000
    Si3329   Si       0.70093    0.43237    0.04017    1.000
    Si3330   Si       0.67564    0.49756    0.00548    1.000
    N3331    N        0.67117    0.41471    0.01417    1.000
    N3332    N        0.68049    0.47244    0.04209    1.000
    N3333    N        0.63484    0.48399    0.99875    1.000
    N3334    N        0.51128    0.34261    0.08800    1.000
    Si3335   Si       0.55072    0.33347    0.07181    1.000
    Si3336   Si       0.59965    0.28969    0.10730    1.000
    N3337    N        0.58742    0.35748    0.06512    1.000
    N3338    N        0.61103    0.29072    0.06563    1.000
    N3339    N        0.56766    0.31821    0.11171    1.000
    Si3340   Si       0.69214    0.36057    0.07639    1.000
    N3341    N        0.64950    0.35842    0.07253    1.000
    N3342    N        0.71490    0.33829    0.10552    1.000
    N3343    N        0.56898    0.45123    0.09682    1.000
    N3344    N        0.51685    0.48790    0.07078    1.000
    Si3345   Si       0.53582    0.47803    0.10958    1.000
    N3346    N        0.48973    0.41066    0.07311    1.000
    Si3347   Si       0.61881    0.39120    0.07491    1.000
    N3348    N        0.71776    0.46182    0.10080    1.000
    Si3349   Si       0.72679    0.41801    0.10423    1.000
    Si3350   Si       0.70003    0.49151    0.07403    1.000
    N3351    N        0.70209    0.40288    0.07252    1.000
    Si3352   Si       0.56911    0.34108    0.15127    1.000
    N3353    N        0.52565    0.35586    0.15587    1.000
    N3354    N        0.60153    0.36579    0.16565    1.000
    Si3355   Si       0.49547    0.33653    0.12975    1.000
    Si3356   Si       0.71080    0.35885    0.14663    1.000
    N3357    N        0.66851    0.36008    0.15032    1.000
    Si3358   Si       0.66181    0.31624    0.15639    1.000
    N3359    N        0.69193    0.28429    0.15854    1.000
    N3360    N        0.63235    0.30677    0.12714    1.000
    N3361    N        0.50399    0.45422    0.12776    1.000
    Si3362   Si       0.60112    0.44584    0.12741    1.000
    N3363    N        0.58367    0.45371    0.16595    1.000
    Si3364   Si       0.50048    0.44082    0.16951    1.000
    N3365    N        0.61965    0.40750    0.11576    1.000
    N3366    N        0.72730    0.39947    0.14342    1.000
    Si3367   Si       0.63730    0.38997    0.15218    1.000
    N3368    N        0.63156    0.47399    0.12113    1.000
    Si3369   Si       0.56452    0.28309    0.21133    1.000
    N3370    N        0.52286    0.29235    0.21021    1.000
    N3371    N        0.57842    0.31270    0.18377    1.000
    Si3372   Si       0.60986    0.34152    0.20001    1.000
    Si3373   Si       0.50174    0.27316    0.17664    1.000
    Si3374   Si       0.51227    0.38014    0.18932    1.000
    N3375    N        0.51290    0.35865    0.22675    1.000
    Si3376   Si       0.72099    0.29703    0.19077    1.000
    N3377    N        0.64510    0.31602    0.19831    1.000
    N3378    N        0.72436    0.33931    0.18490    1.000
    N3379    N        0.70105    0.28673    0.22947    1.000
    Si3380   Si       0.65783    0.28879    0.23002    1.000
    N3381    N        0.60487    0.42480    0.22324    1.000
    Si3382   Si       0.56779    0.44281    0.20301    1.000
    N3383    N        0.53277    0.42064    0.19100    1.000
    N3384    N        0.64704    0.42653    0.17369    1.000
    N3385    N        0.63395    0.48990    0.21572    1.000
    N3386    N        0.73105    0.44765    0.19875    1.000
    Si3387   Si       0.64091    0.44628    0.21142    1.000
    N3388    N        0.51740    0.30646    0.27536    1.000
    N3389    N        0.57993    0.28463    0.25159    1.000
    Si3390   Si       0.59814    0.32334    0.26988    1.000
    Si3391   Si       0.54177    0.27122    0.27422    1.000
    N3392    N        0.59892    0.35650    0.23784    1.000
    Si3393   Si       0.49834    0.31719    0.23689    1.000
    Si3394   Si       0.61460    0.25664    0.26625    1.000
    N3395    N        0.64088    0.30540    0.26818    1.000
    Si3396   Si       0.72063    0.26458    0.26289    1.000
    Si3397   Si       0.72752    0.36712    0.28234    1.000
    Si3398   Si       0.55424    0.45634    0.27624    1.000
    Si3399   Si       0.51805    0.39332    0.25688    1.000
    N3400    N        0.55723    0.41259    0.26770    1.000
    Si3401   Si       0.59575    0.39554    0.25520    1.000
    N3402    N        0.55810    0.47252    0.23351    1.000
    N3403    N        0.50256    0.50969    0.25117    1.000
    N3404    N        0.59369    0.46748    0.28983    1.000
    N3405    N        0.62761    0.39920    0.28615    1.000
    N3406    N        0.72631    0.45420    0.26872    1.000
    N3407    N        0.67384    0.44114    0.24078    1.000
    N3408    N        0.72304    0.39051    0.24563    1.000
    Si3409   Si       0.68546    0.46674    0.27454    1.000
    Si3410   Si       0.71429    0.43085    0.23417    1.000
    Si3411   Si       0.59132    0.37123    0.32899    1.000
    Si3412   Si       0.52941    0.33678    0.30441    1.000
    N3413    N        0.57436    0.34439    0.30032    1.000
    N3414    N        0.52117    0.31856    0.34107    1.000
    N3415    N        0.51028    0.37402    0.29446    1.000
    Si3416   Si       0.50120    0.27880    0.34095    1.000
    N3417    N        0.59399    0.26204    0.30762    1.000
    N3418    N        0.63218    0.35832    0.33632    1.000
    N3419    N        0.65418    0.29584    0.33799    1.000
    N3420    N        0.70997    0.28712    0.29804    1.000
    Si3421   Si       0.67269    0.31118    0.29788    1.000
    N3422    N        0.68605    0.35216    0.29478    1.000
    Si3423   Si       0.74135    0.28270    0.32827    1.000
    Si3424   Si       0.63503    0.25705    0.32858    1.000
    N3425    N        0.59777    0.41679    0.33830    1.000
    N3426    N        0.52634    0.47594    0.30372    1.000
    Si3427   Si       0.49469    0.46595    0.33816    1.000
    Si3428   Si       0.65818    0.38089    0.31202    1.000
    Si3429   Si       0.68474    0.45102    0.34503    1.000
    N3430    N        0.65956    0.45963    0.30968    1.000
    N3431    N        0.74233    0.38273    0.32253    1.000
    Si3432   Si       0.62218    0.43817    0.30986    1.000
    N3433    N        0.72542    0.45810    0.33540    1.000
    N3434    N        0.67862    0.40643    0.34038    1.000
    N3435    N        0.56883    0.36042    0.36773    1.000
    Si3436   Si       0.52757    0.34769    0.37203    1.000
    Si3437   Si       0.59528    0.35692    0.40059    1.000
    N3438    N        0.51273    0.26195    0.37919    1.000
    N3439    N        0.73718    0.28619    0.37106    1.000
    N3440    N        0.62605    0.32659    0.39789    1.000
    Si3441   Si       0.65241    0.33177    0.36306    1.000
    Si3442   Si       0.72588    0.32388    0.39000    1.000
    N3443    N        0.69476    0.34247    0.36772    1.000
    N3444    N        0.50476    0.38487    0.36436    1.000
    Si3445   Si       0.59065    0.42454    0.38134    1.000
    N3446    N        0.55039    0.43111    0.39421    1.000
    Si3447   Si       0.50819    0.41944    0.39041    1.000
    Si3448   Si       0.58548    0.49890    0.37894    1.000
    N3449    N        0.61042    0.46412    0.38538    1.000
    N3450    N        0.61157    0.39695    0.40536    1.000
    Si3451   Si       0.71246    0.38093    0.35646    1.000
    Si3452   Si       0.64696    0.46724    0.40605    1.000
    N3453    N        0.71901    0.40148    0.39638    1.000
    N3454    N        0.68131    0.47625    0.38050    1.000
    Si3455   Si       0.54645    0.32158    0.44479    1.000
    N3456    N        0.57896    0.35036    0.44270    1.000
    N3457    N        0.56701    0.28967    0.42433    1.000
    N3458    N        0.51996    0.33797    0.41573    1.000
    Si3459   Si       0.61170    0.29897    0.42806    1.000
    N3460    N        0.71779    0.32121    0.43320    1.000
    Si3461   Si       0.70687    0.28401    0.45285    1.000
    Si3462   Si       0.72643    0.35639    0.45720    1.000
    N3463    N        0.62395    0.31373    0.46698    1.000
    N3464    N        0.49740    0.40156    0.42708    1.000
    N3465    N        0.58672    0.44661    0.44953    1.000
    Si3466   Si       0.55103    0.45975    0.42826    1.000
    N3467    N        0.51607    0.45971    0.45163    1.000
    N3468    N        0.55409    0.49911    0.40929    1.000
    Si3469   Si       0.50133    0.42070    0.46548    1.000
    Si3470   Si       0.61990    0.41585    0.44436    1.000
    N3471    N        0.65311    0.50201    0.43225    1.000
    N3472    N        0.65649    0.43400    0.42944    1.000
    N3473    N        0.69765    0.38699    0.46147    1.000
    N3474    N        0.71568    0.45649    0.45014    1.000
    Si3475   Si       0.69838    0.41963    0.43206    1.000
    Si3476   Si       0.69217    0.49460    0.45224    1.000
    N3477    N        0.58204    0.34223    0.51202    1.000
    Si3478   Si       0.51028    0.26976    0.50092    1.000
    Si3479   Si       0.60440    0.35051    0.47674    1.000
    N3480    N        0.52820    0.30471    0.48098    1.000
    Si3481   Si       0.54493    0.31767    0.52303    1.000
    Si3482   Si       0.63579    0.28296    0.49503    1.000
    N3483    N        0.67149    0.26245    0.47569    1.000
    N3484    N        0.73673    0.33740    0.49510    1.000
    N3485    N        0.73611    0.26535    0.48285    1.000
    N3486    N        0.48589    0.50131    0.50079    1.000
    N3487    N        0.52593    0.40173    0.49453    1.000
    N3488    N        0.56498    0.45978    0.51807    1.000
    Si3489   Si       0.58605    0.47442    0.48420    1.000
    Si3490   Si       0.66912    0.38913    0.49426    1.000
    N3491    N        0.67659    0.42448    0.51599    1.000
    N3492    N        0.62739    0.38910    0.47834    1.000
    N3493    N        0.62813    0.47701    0.49860    1.000
    Si3494   Si       0.58666    0.36007    0.55336    1.000
    N3495    N        0.56042    0.32713    0.56702    1.000
    N3496    N        0.50849    0.34356    0.53518    1.000
    Si3497   Si       0.57843    0.26083    0.55288    1.000
    N3498    N        0.54276    0.27410    0.53116    1.000
    N3499    N        0.61484    0.27327    0.57512    1.000
    Si3500   Si       0.65742    0.27529    0.56754    1.000
    Si3501   Si       0.65764    0.33704    0.55291    1.000
    N3502    N        0.62612    0.36026    0.57201    1.000
    Si3503   Si       0.72293    0.35142    0.53271    1.000
    N3504    N        0.65464    0.30097    0.52958    1.000
    N3505    N        0.68069    0.36201    0.52612    1.000
    N3506    N        0.49211    0.49212    0.57492    1.000
    Si3507   Si       0.51912    0.38654    0.53511    1.000
    N3508    N        0.55824    0.39376    0.55268    1.000
    Si3509   Si       0.57558    0.43489    0.55162    1.000
    N3510    N        0.68323    0.40186    0.58278    1.000
    Si3511   Si       0.64741    0.45255    0.52804    1.000
    N3512    N        0.73768    0.39321    0.53371    1.000
    Si3513   Si       0.63674    0.40314    0.58167    1.000
    Si3514   Si       0.70509    0.41797    0.54827    1.000
    N3515    N        0.61955    0.42832    0.55172    1.000
    N3516    N        0.66317    0.48812    0.55040    1.000
    Si3517   Si       0.70304    0.49073    0.56724    1.000
    N3518    N        0.72429    0.45707    0.54924    1.000
    Si3519   Si       0.59374    0.28025    0.61181    1.000
    Si3520   Si       0.53538    0.30845    0.59519    1.000
    N3521    N        0.60329    0.31865    0.62761    1.000
    N3522    N        0.55569    0.26909    0.59557    1.000
    N3523    N        0.53849    0.32834    0.63046    1.000
    N3524    N        0.49164    0.30330    0.58736    1.000
    Si3525   Si       0.63701    0.34090    0.61035    1.000
    Si3526   Si       0.68703    0.29250    0.62324    1.000
    N3527    N        0.72843    0.29723    0.63020    1.000
    N3528    N        0.66768    0.31685    0.59098    1.000
    N3529    N        0.72230    0.36311    0.63702    1.000
    N3530    N        0.65509    0.36656    0.64118    1.000
    Si3531   Si       0.58647    0.44761    0.61971    1.000
    Si3532   Si       0.51933    0.47024    0.59816    1.000
    N3533    N        0.52680    0.49469    0.63408    1.000
    N3534    N        0.49473    0.43643    0.61522    1.000
    N3535    N        0.59807    0.48633    0.63933    1.000
    N3536    N        0.55911    0.45362    0.58540    1.000
    N3537    N        0.61643    0.41667    0.61866    1.000
    Si3538   Si       0.72989    0.45572    0.63657    1.000
    N3539    N        0.71162    0.48561    0.60912    1.000
    Si3540   Si       0.69128    0.39026    0.62368    1.000
    Si3541   Si       0.57270    0.33551    0.65560    1.000
    N3542    N        0.50149    0.28492    0.68665    1.000
    N3543    N        0.57293    0.31055    0.69060    1.000
    N3544    N        0.58536    0.37687    0.66336    1.000
    Si3545   Si       0.49561    0.37216    0.69922    1.000
    Si3546   Si       0.67063    0.26825    0.69398    1.000
    Si3547   Si       0.66207    0.34135    0.67720    1.000
    N3548    N        0.66907    0.30100    0.66265    1.000
    Si3549   Si       0.73089    0.36237    0.68116    1.000
    Si3550   Si       0.73608    0.28870    0.67579    1.000
    Si3551   Si       0.48994    0.49517    0.69951    1.000
    Si3552   Si       0.56282    0.49668    0.66642    1.000
    N3553    N        0.51846    0.40521    0.67878    1.000
    Si3554   Si       0.51401    0.44902    0.65588    1.000
    Si3555   Si       0.56174    0.40826    0.68285    1.000
    N3556    N        0.55932    0.43921    0.65121    1.000
    N3557    N        0.53149    0.48299    0.69523    1.000
    N3558    N        0.69642    0.42811    0.64402    1.000
    Si3559   Si       0.67670    0.44586    0.67979    1.000
    N3560    N        0.63838    0.42651    0.68163    1.000
    Si3561   Si       0.62467    0.39490    0.65597    1.000
    N3562    N        0.66271    0.48726    0.68111    1.000
    N3563    N        0.51704    0.34351    0.72392    1.000
    N3564    N        0.54409    0.27427    0.73888    1.000
    Si3565   Si       0.53325    0.30417    0.70760    1.000
    Si3566   Si       0.60692    0.30816    0.72006    1.000
    Si3567   Si       0.66492    0.35624    0.73885    1.000
    N3568    N        0.63618    0.27143    0.72161    1.000
    N3569    N        0.63438    0.34139    0.70992    1.000
    N3570    N        0.71178    0.26773    0.70778    1.000
    N3571    N        0.69290    0.35723    0.70259    1.000
    Si3572   Si       0.55837    0.46969    0.72567    1.000
    N3573    N        0.57693    0.42952    0.71618    1.000
    N3574    N        0.59240    0.48983    0.70446    1.000
    Si3575   Si       0.61655    0.45295    0.70947    1.000
    N3576    N        0.66372    0.39457    0.75938    1.000
    Si3577   Si       0.67737    0.43398    0.75025    1.000
    N3578    N        0.69780    0.50470    0.74913    1.000
    N3579    N        0.64004    0.45726    0.74673    1.000
    N3580    N        0.69923    0.43137    0.71264    1.000
    N3581    N        0.52697    0.32019    0.78752    1.000
    Si3582   Si       0.55860    0.29175    0.77486    1.000
    Si3583   Si       0.51557    0.35496    0.76586    1.000
    N3584    N        0.57299    0.26476    0.80495    1.000
    N3585    N        0.50559    0.26164    0.80548    1.000
    N3586    N        0.60985    0.37253    0.80225    1.000
    Si3587   Si       0.50913    0.30441    0.82184    1.000
    N3588    N        0.59299    0.31318    0.76164    1.000
    Si3589   Si       0.61221    0.26222    0.82035    1.000
    Si3590   Si       0.62067    0.33047    0.79081    1.000
    Si3591   Si       0.67559    0.31094    0.80962    1.000
    N3592    N        0.66037    0.33325    0.77474    1.000
    N3593    N        0.70755    0.28458    0.79850    1.000
    N3594    N        0.63107    0.30200    0.82211    1.000
    N3595    N        0.53268    0.38821    0.78873    1.000
    Si3596   Si       0.50130    0.48051    0.77407    1.000
    Si3597   Si       0.56157    0.46702    0.80043    1.000
    Si3598   Si       0.50419    0.41748    0.80344    1.000
    N3599    N        0.58719    0.43330    0.79087    1.000
    Si3600   Si       0.57342    0.39455    0.80652    1.000
    N3601    N        0.59444    0.49611    0.80091    1.000
    N3602    N        0.54197    0.47321    0.76348    1.000
    Si3603   Si       0.64626    0.39956    0.80259    1.000
    N3604    N        0.64712    0.44327    0.81125    1.000
    Si3605   Si       0.61978    0.46080    0.78406    1.000
    N3606    N        0.70625    0.44182    0.78243    1.000
    N3607    N        0.65936    0.50864    0.80901    1.000
    N3608    N        0.53855    0.31357    0.85343    1.000
    Si3609   Si       0.56415    0.34622    0.86774    1.000
    N3610    N        0.60636    0.26402    0.86550    1.000
    N3611    N        0.60547    0.33676    0.87616    1.000
    Si3612   Si       0.53354    0.28029    0.87950    1.000
    Si3613   Si       0.69201    0.36597    0.86198    1.000
    N3614    N        0.68711    0.32603    0.84961    1.000
    N3615    N        0.72904    0.26899    0.86327    1.000
    Si3616   Si       0.63105    0.30299    0.86786    1.000
    N3617    N        0.73384    0.37407    0.86851    1.000
    N3618    N        0.56579    0.38738    0.84945    1.000
    N3619    N        0.51307    0.50147    0.87380    1.000
    N3620    N        0.52996    0.44838    0.82218    1.000
    Si3621   Si       0.51424    0.46003    0.86085    1.000
    N3622    N        0.62694    0.49521    0.86220    1.000
    Si3623   Si       0.65660    0.47634    0.83605    1.000
    Si3624   Si       0.70488    0.43086    0.82360    1.000
    N3625    N        0.68279    0.39286    0.82804    1.000
    N3626    N        0.69481    0.46295    0.85167    1.000
    N3627    N        0.55833    0.28275    0.91410    1.000
    N3628    N        0.54612    0.36377    0.90504    1.000
    N3629    N        0.49170    0.27987    0.89055    1.000
    N3630    N        0.66351    0.28382    0.89450    1.000
    Si3631   Si       0.62420    0.36246    0.90754    1.000
    N3632    N        0.72102    0.32306    0.91049    1.000
    N3633    N        0.66619    0.37186    0.89779    1.000
    Si3634   Si       0.66166    0.26636    0.93562    1.000
    Si3635   Si       0.70104    0.29929    0.88058    1.000
    N3636    N        0.62385    0.33556    0.94025    1.000
    Si3637   Si       0.50904    0.50477    0.91746    1.000
    N3638    N        0.55083    0.50181    0.92965    1.000
    N3639    N        0.60507    0.46704    0.92309    1.000
    Si3640   Si       0.56259    0.40242    0.89124    1.000
    Si3641   Si       0.56128    0.46006    0.92498    1.000
    N3642    N        0.54053    0.44088    0.89092    1.000
    N3643    N        0.60167    0.39932    0.91400    1.000
    N3644    N        0.72911    0.38977    0.92973    1.000
    Si3645   Si       0.62863    0.49790    0.90372    1.000
    N3646    N        0.72673    0.45821    0.91284    1.000
    N3647    N        0.67053    0.49204    0.91192    1.000
    Si3648   Si       0.68504    0.39016    0.93311    1.000
    Si3649   Si       0.70866    0.48596    0.88591    1.000
    Si3650   Si       0.62169    0.42834    0.93876    1.000
    Si3651   Si       0.53986    0.28641    0.95208    1.000
    N3652    N        0.52168    0.32285    0.96816    1.000
    Si3653   Si       0.52809    0.36027    0.94570    1.000
    N3654    N        0.56293    0.26472    0.98343    1.000
    N3655    N        0.55515    0.37733    0.97491    1.000
    N3656    N        0.49008    0.37994    0.94429    1.000
    N3657    N        0.67593    0.36536    0.96800    1.000
    Si3658   Si       0.65300    0.32672    0.96972    1.000
    N3659    N        0.68232    0.29575    0.96051    1.000
    Si3660   Si       0.72364    0.30589    0.95146    1.000
    N3661    N        0.54536    0.44379    0.96302    1.000
    Si3662   Si       0.50828    0.46179    0.97819    1.000
    Si3663   Si       0.56482    0.41624    0.98921    1.000
    N3664    N        0.60749    0.42346    0.97868    1.000
    N3665    N        0.66712    0.42935    0.93917    1.000
    N3666    N        0.70454    0.48071    0.97670    1.000
    Si3667   Si       0.69223    0.46424    0.93990    1.000
    Si3668   Si       0.57788    0.56982    0.02246    1.000
    N3669    N        0.54250    0.54805    0.03739    1.000
    Si3670   Si       0.50593    0.56944    0.05244    1.000
    N3671    N        0.49037    0.60310    0.02985    1.000
    Si3672   Si       0.61035    0.63058    0.00952    1.000
    Si3673   Si       0.60506    0.51070    0.01568    1.000
    N3674    N        0.61877    0.54851    0.03463    1.000
    Si3675   Si       0.64974    0.57065    0.00927    1.000
    Si3676   Si       0.71822    0.55063    0.03086    1.000
    N3677    N        0.64740    0.61510    0.02588    1.000
    N3678    N        0.68169    0.54097    0.00830    1.000
    N3679    N        0.72984    0.51464    0.05253    1.000
    N3680    N        0.49291    0.73857    0.01785    1.000
    Si3681   Si       0.55471    0.68514    0.02162    1.000
    N3682    N        0.56750    0.72478    0.01549    1.000
    N3683    N        0.59056    0.66001    0.03648    1.000
    Si3684   Si       0.59495    0.75031    0.04229    1.000
    N3685    N        0.52651    0.68825    0.05627    1.000
    N3686    N        0.72181    0.70646    0.03419    1.000
    Si3687   Si       0.72317    0.74200    0.00736    1.000
    N3688    N        0.65383    0.69437    0.03431    1.000
    N3689    N        0.50939    0.57440    0.09500    1.000
    N3690    N        0.58765    0.59271    0.06231    1.000
    N3691    N        0.60552    0.53741    0.10823    1.000
    Si3692   Si       0.58766    0.63346    0.07192    1.000
    Si3693   Si       0.61691    0.56467    0.07435    1.000
    Si3694   Si       0.69068    0.56661    0.09806    1.000
    N3695    N        0.65206    0.58565    0.08758    1.000
    N3696    N        0.67839    0.52524    0.09513    1.000
    Si3697   Si       0.66059    0.62393    0.06581    1.000
    N3698    N        0.71129    0.57972    0.06236    1.000
    Si3699   Si       0.73414    0.61746    0.06068    1.000
    N3700    N        0.55692    0.64361    0.10306    1.000
    Si3701   Si       0.50175    0.73521    0.10489    1.000
    Si3702   Si       0.52139    0.66575    0.09217    1.000
    N3703    N        0.60458    0.72320    0.07493    1.000
    Si3704   Si       0.61248    0.73593    0.11614    1.000
    N3705    N        0.52845    0.75771    0.07819    1.000
    Si3706   Si       0.70280    0.66298    0.10938    1.000
    Si3707   Si       0.61961    0.68495    0.05863    1.000
    N3708    N        0.68359    0.75407    0.06458    1.000
    Si3709   Si       0.68563    0.71090    0.05951    1.000
    N3710    N        0.62884    0.65002    0.08513    1.000
    N3711    N        0.70030    0.64049    0.07275    1.000
    N3712    N        0.68350    0.69999    0.10201    1.000
    N3713    N        0.56540    0.58246    0.14794    1.000
    Si3714   Si       0.50597    0.54340    0.12726    1.000
    Si3715   Si       0.57505    0.54306    0.13768    1.000
    N3716    N        0.54176    0.51807    0.12723    1.000
    Si3717   Si       0.56475    0.62506    0.14134    1.000
    N3718    N        0.49521    0.57029    0.15936    1.000
    N3719    N        0.60557    0.63966    0.15152    1.000
    N3720    N        0.69969    0.57479    0.14124    1.000
    Si3721   Si       0.70294    0.53422    0.15908    1.000
    Si3722   Si       0.69222    0.61214    0.16297    1.000
    N3723    N        0.65916    0.52545    0.15838    1.000
    Si3724   Si       0.64183    0.51391    0.11835    1.000
    N3725    N        0.73526    0.50849    0.14205    1.000
    N3726    N        0.53279    0.63504    0.16918    1.000
    N3727    N        0.51198    0.69576    0.12236    1.000
    N3728    N        0.62012    0.69970    0.13658    1.000
    N3729    N        0.64816    0.75616    0.12709    1.000
    N3730    N        0.68288    0.73146    0.17442    1.000
    Si3731   Si       0.64459    0.75090    0.17003    1.000
    N3732    N        0.67614    0.64445    0.13869    1.000
    Si3733   Si       0.63590    0.65923    0.12742    1.000
    Si3734   Si       0.68627    0.73413    0.12891    1.000
    Si3735   Si       0.56993    0.57176    0.19191    1.000
    N3736    N        0.58804    0.60904    0.21087    1.000
    N3737    N        0.53669    0.54966    0.20965    1.000
    N3738    N        0.59292    0.53752    0.18043    1.000
    Si3739   Si       0.49421    0.55639    0.20285    1.000
    Si3740   Si       0.49754    0.61146    0.17254    1.000
    N3741    N        0.71806    0.51965    0.19961    1.000
    Si3742   Si       0.62270    0.62729    0.19058    1.000
    Si3743   Si       0.63341    0.52565    0.19075    1.000
    N3744    N        0.66010    0.60712    0.19457    1.000
    N3745    N        0.72766    0.61956    0.18577    1.000
    N3746    N        0.65116    0.54989    0.22346    1.000
    Si3747   Si       0.53382    0.66894    0.19503    1.000
    N3748    N        0.56329    0.69933    0.18482    1.000
    Si3749   Si       0.57328    0.73750    0.20778    1.000
    N3750    N        0.49447    0.68849    0.19064    1.000
    Si3751   Si       0.60397    0.69214    0.17537    1.000
    Si3752   Si       0.72018    0.73277    0.19679    1.000
    N3753    N        0.62956    0.66994    0.20362    1.000
    N3754    N        0.73408    0.69096    0.19985    1.000
    N3755    N        0.61385    0.73217    0.19141    1.000
    N3756    N        0.56168    0.52836    0.27654    1.000
    N3757    N        0.56144    0.60710    0.27862    1.000
    Si3758   Si       0.54364    0.51512    0.23724    1.000
    Si3759   Si       0.57773    0.63264    0.24781    1.000
    Si3760   Si       0.64914    0.51538    0.24918    1.000
    N3761    N        0.65883    0.60197    0.27325    1.000
    N3762    N        0.71252    0.57657    0.23894    1.000
    Si3763   Si       0.71783    0.53172    0.24008    1.000
    N3764    N        0.63069    0.53167    0.28566    1.000
    Si3765   Si       0.73844    0.59557    0.26882    1.000
    N3766    N        0.68936    0.50700    0.26039    1.000
    Si3767   Si       0.67145    0.58720    0.23224    1.000
    N3768    N        0.54720    0.66008    0.23601    1.000
    N3769    N        0.49437    0.70260    0.25690    1.000
    N3770    N        0.56959    0.72460    0.24993    1.000
    Si3771   Si       0.60268    0.73772    0.27703    1.000
    Si3772   Si       0.53991    0.69626    0.25916    1.000
    N3773    N        0.61194    0.65676    0.26352    1.000
    Si3774   Si       0.64285    0.68383    0.24306    1.000
    N3775    N        0.64033    0.72467    0.26059    1.000
    N3776    N        0.70662    0.73361    0.23815    1.000
    Si3777   Si       0.67822    0.74677    0.26852    1.000
    N3778    N        0.68283    0.66914    0.25057    1.000
    Si3779   Si       0.72010    0.69037    0.24056    1.000
    Si3780   Si       0.68213    0.63853    0.28513    1.000
    N3781    N        0.55989    0.57530    0.33354    1.000
    Si3782   Si       0.56138    0.61608    0.32374    1.000
    N3783    N        0.59081    0.51785    0.34057    1.000
    Si3784   Si       0.59535    0.51152    0.29896    1.000
    Si3785   Si       0.50603    0.51379    0.29434    1.000
    Si3786   Si       0.54985    0.56618    0.29102    1.000
    N3787    N        0.50659    0.55746    0.29600    1.000
    N3788    N        0.62507    0.57752    0.33732    1.000
    Si3789   Si       0.72456    0.56600    0.33957    1.000
    N3790    N        0.68471    0.56909    0.32475    1.000
    Si3791   Si       0.64720    0.57039    0.30043    1.000
    N3792    N        0.52601    0.63703    0.34074    1.000
    N3793    N        0.59786    0.63832    0.32912    1.000
    N3794    N        0.60203    0.70915    0.31180    1.000
    N3795    N        0.53844    0.68780    0.30190    1.000
    Si3796   Si       0.50600    0.65819    0.30871    1.000
    Si3797   Si       0.56325    0.70724    0.33142    1.000
    N3798    N        0.54698    0.74509    0.34820    1.000
    Si3799   Si       0.61795    0.66840    0.30551    1.000
    Si3800   Si       0.71178    0.72486    0.34248    1.000
    N3801    N        0.73371    0.69015    0.32932    1.000
    N3802    N        0.69429    0.74860    0.31087    1.000
    N3803    N        0.66059    0.65837    0.31852    1.000
    N3804    N        0.72483    0.63319    0.28853    1.000
    N3805    N        0.59179    0.60295    0.38378    1.000
    Si3806   Si       0.59146    0.56207    0.36093    1.000
    N3807    N        0.59821    0.53826    0.39832    1.000
    Si3808   Si       0.62135    0.62857    0.36447    1.000
    Si3809   Si       0.66042    0.57601    0.35968    1.000
    N3810    N        0.66394    0.61791    0.37385    1.000
    Si3811   Si       0.70275    0.61927    0.39533    1.000
    N3812    N        0.73219    0.59667    0.37101    1.000
    N3813    N        0.66335    0.54935    0.39189    1.000
    N3814    N        0.72006    0.52885    0.35895    1.000
    Si3815   Si       0.69318    0.51794    0.39256    1.000
    N3816    N        0.56197    0.68672    0.37108    1.000
    Si3817   Si       0.53068    0.65856    0.37972    1.000
    Si3818   Si       0.59928    0.69439    0.39272    1.000
    N3819    N        0.61062    0.73492    0.38330    1.000
    N3820    N        0.48981    0.66617    0.39119    1.000
    Si3821   Si       0.65277    0.73984    0.38754    1.000
    N3822    N        0.62982    0.66971    0.37834    1.000
    Si3823   Si       0.67216    0.66749    0.36250    1.000
    N3824    N        0.67672    0.71386    0.36504    1.000
    N3825    N        0.73406    0.75172    0.36865    1.000
    N3826    N        0.70539    0.66384    0.39378    1.000
    Si3827   Si       0.56538    0.53678    0.43011    1.000
    N3828    N        0.54619    0.57559    0.42437    1.000
    Si3829   Si       0.57061    0.60828    0.42066    1.000
    Si3830   Si       0.50284    0.56713    0.42205    1.000
    N3831    N        0.59526    0.62617    0.45144    1.000
    N3832    N        0.50435    0.53692    0.45380    1.000
    N3833    N        0.61853    0.56184    0.45647    1.000
    N3834    N        0.70097    0.60283    0.43669    1.000
    Si3835   Si       0.63449    0.54099    0.42280    1.000
    Si3836   Si       0.72594    0.56577    0.44308    1.000
    N3837    N        0.71431    0.52534    0.42879    1.000
    N3838    N        0.54275    0.64581    0.42146    1.000
    N3839    N        0.60161    0.69147    0.43432    1.000
    Si3840   Si       0.49846    0.64702    0.42855    1.000
    Si3841   Si       0.57366    0.66357    0.45169    1.000
    N3842    N        0.49124    0.67113    0.46517    1.000
    N3843    N        0.67572    0.67170    0.45746    1.000
    Si3844   Si       0.69706    0.69460    0.42432    1.000
    Si3845   Si       0.64062    0.70075    0.46017    1.000
    N3846    N        0.66244    0.72526    0.42824    1.000
    N3847    N        0.73686    0.70464    0.44039    1.000
    Si3848   Si       0.50384    0.54176    0.49683    1.000
    N3849    N        0.59145    0.59107    0.51106    1.000
    Si3850   Si       0.58586    0.54843    0.49807    1.000
    N3851    N        0.52059    0.62602    0.51462    1.000
    N3852    N        0.54093    0.55522    0.51167    1.000
    N3853    N        0.57681    0.51601    0.47125    1.000
    Si3854   Si       0.61768    0.59917    0.47665    1.000
    Si3855   Si       0.64895    0.51225    0.51649    1.000
    N3856    N        0.65467    0.61699    0.48842    1.000
    Si3857   Si       0.72461    0.52709    0.50438    1.000
    N3858    N        0.73318    0.56454    0.48572    1.000
    N3859    N        0.68565    0.51217    0.49076    1.000
    Si3860   Si       0.68975    0.63147    0.46808    1.000
    N3861    N        0.72194    0.63662    0.49654    1.000
    N3862    N        0.61852    0.53912    0.52684    1.000
    Si3863   Si       0.51675    0.66767    0.50039    1.000
    Si3864   Si       0.58678    0.71296    0.49749    1.000
    N3865    N        0.55494    0.68328    0.48503    1.000
    N3866    N        0.59915    0.75040    0.47920    1.000
    N3867    N        0.66593    0.73976    0.48782    1.000
    Si3868   Si       0.68773    0.71902    0.51997    1.000
    Si3869   Si       0.64478    0.65167    0.51558    1.000
    N3870    N        0.72789    0.70880    0.51468    1.000
    N3871    N        0.62156    0.68404    0.49699    1.000
    N3872    N        0.54871    0.59513    0.57121    1.000
    Si3873   Si       0.55131    0.59660    0.52767    1.000
    Si3874   Si       0.62343    0.58306    0.54604    1.000
    N3875    N        0.72070    0.52780    0.54743    1.000
    Si3876   Si       0.71014    0.56753    0.56196    1.000
    N3877    N        0.66511    0.57217    0.55750    1.000
    N3878    N        0.62900    0.62800    0.54716    1.000
    N3879    N        0.73939    0.59759    0.54830    1.000
    N3880    N        0.49907    0.69017    0.53537    1.000
    N3881    N        0.57661    0.73091    0.53662    1.000
    Si3882   Si       0.59664    0.72292    0.57385    1.000
    N3883    N        0.51071    0.75735    0.55060    1.000
    Si3884   Si       0.49147    0.68172    0.57960    1.000
    Si3885   Si       0.72062    0.66751    0.52906    1.000
    N3886    N        0.67725    0.67725    0.53441    1.000
    N3887    N        0.62550    0.69198    0.57859    1.000
    N3888    N        0.67719    0.73520    0.55753    1.000
    Si3889   Si       0.67040    0.69218    0.57697    1.000
    Si3890   Si       0.57847    0.59791    0.60335    1.000
    Si3891   Si       0.51398    0.60069    0.59948    1.000
    N3892    N        0.54676    0.59928    0.63412    1.000
    N3893    N        0.50198    0.55345    0.60805    1.000
    N3894    N        0.61234    0.57756    0.58952    1.000
    Si3895   Si       0.51756    0.53726    0.64546    1.000
    N3896    N        0.65549    0.52484    0.62097    1.000
    N3897    N        0.70204    0.56022    0.60492    1.000
    Si3898   Si       0.65508    0.56676    0.60219    1.000
    Si3899   Si       0.69913    0.52241    0.62753    1.000
    N3900    N        0.65400    0.59358    0.64060    1.000
    N3901    N        0.59148    0.63909    0.60966    1.000
    N3902    N        0.56539    0.71025    0.60294    1.000
    Si3903   Si       0.55704    0.66831    0.61128    1.000
    Si3904   Si       0.55689    0.74217    0.63272    1.000
    N3905    N        0.52377    0.65410    0.59189    1.000
    Si3906   Si       0.50141    0.75595    0.59297    1.000
    Si3907   Si       0.66903    0.63370    0.63863    1.000
    N3908    N        0.66704    0.64965    0.59850    1.000
    Si3909   Si       0.62725    0.64868    0.58637    1.000
    Si3910   Si       0.68401    0.73186    0.63890    1.000
    N3911    N        0.70166    0.70508    0.60922    1.000
    N3912    N        0.59399    0.60758    0.68054    1.000
    N3913    N        0.55698    0.54096    0.66323    1.000
    Si3914   Si       0.56121    0.57888    0.68196    1.000
    N3915    N        0.52575    0.60164    0.69202    1.000
    Si3916   Si       0.51894    0.63034    0.65795    1.000
    Si3917   Si       0.63222    0.50930    0.65303    1.000
    N3918    N        0.62214    0.54343    0.67747    1.000
    Si3919   Si       0.63054    0.58517    0.67728    1.000
    Si3920   Si       0.73401    0.55329    0.69032    1.000
    N3921    N        0.73264    0.53371    0.65192    1.000
    N3922    N        0.59731    0.75624    0.64701    1.000
    Si3923   Si       0.59421    0.64255    0.65464    1.000
    N3924    N        0.55520    0.66204    0.65375    1.000
    Si3925   Si       0.53961    0.68832    0.68499    1.000
    N3926    N        0.53891    0.72794    0.67082    1.000
    N3927    N        0.50037    0.66776    0.67982    1.000
    Si3928   Si       0.51735    0.75332    0.69618    1.000
    N3929    N        0.63645    0.65329    0.66155    1.000
    N3930    N        0.65422    0.71904    0.66747    1.000
    Si3931   Si       0.62387    0.74890    0.68041    1.000
    N3932    N        0.70680    0.63969    0.66043    1.000
    N3933    N        0.71409    0.75440    0.65951    1.000
    Si3934   Si       0.65315    0.68250    0.69076    1.000
    Si3935   Si       0.73601    0.75405    0.69975    1.000
    N3936    N        0.57479    0.55936    0.72387    1.000
    Si3937   Si       0.60447    0.52931    0.71440    1.000
    N3938    N        0.57419    0.62560    0.74604    1.000
    Si3939   Si       0.50092    0.60413    0.72899    1.000
    Si3940   Si       0.60996    0.62792    0.72333    1.000
    Si3941   Si       0.55952    0.58468    0.75747    1.000
    N3942    N        0.51910    0.57674    0.75902    1.000
    N3943    N        0.70906    0.61515    0.73127    1.000
    N3944    N        0.64294    0.59878    0.71736    1.000
    Si3945   Si       0.67932    0.58440    0.73367    1.000
    N3946    N        0.63907    0.52817    0.73801    1.000
    Si3947   Si       0.67212    0.51484    0.71303    1.000
    N3948    N        0.69270    0.55415    0.70490    1.000
    Si3949   Si       0.74054    0.51682    0.75280    1.000
    Si3950   Si       0.54508    0.65620    0.75338    1.000
    N3951    N        0.50510    0.64278    0.74831    1.000
    Si3952   Si       0.59798    0.70201    0.73438    1.000
    N3953    N        0.55791    0.68640    0.72424    1.000
    N3954    N        0.60613    0.74117    0.71930    1.000
    N3955    N        0.62222    0.67081    0.72129    1.000
    N3956    N        0.73681    0.66998    0.75770    1.000
    N3957    N        0.69097    0.68001    0.71088    1.000
    N3958    N        0.70611    0.74467    0.73316    1.000
    Si3959   Si       0.71766    0.70329    0.73506    1.000
    Si3960   Si       0.71790    0.64639    0.70172    1.000
    N3961    N        0.57723    0.57419    0.79449    1.000
    Si3962   Si       0.49784    0.55131    0.78678    1.000
    N3963    N        0.50439    0.51085    0.80288    1.000
    N3964    N        0.67931    0.56690    0.77371    1.000
    Si3965   Si       0.71478    0.57183    0.80108    1.000
    Si3966   Si       0.66809    0.52701    0.77238    1.000
    N3967    N        0.73273    0.61156    0.79785    1.000
    N3968    N        0.60655    0.63545    0.81306    1.000
    Si3969   Si       0.58660    0.67439    0.80952    1.000
    N3970    N        0.54594    0.66874    0.79421    1.000
    N3971    N        0.60047    0.70461    0.77878    1.000
    N3972    N        0.49756    0.74706    0.78284    1.000
    Si3973   Si       0.50806    0.67630    0.81542    1.000
    Si3974   Si       0.61088    0.74200    0.79310    1.000
    N3975    N        0.70920    0.72642    0.79795    1.000
    Si3976   Si       0.71336    0.63495    0.76868    1.000
    N3977    N        0.65338    0.74894    0.78773    1.000
    N3978    N        0.67384    0.64356    0.78352    1.000
    N3979    N        0.56560    0.59909    0.85684    1.000
    Si3980   Si       0.52078    0.60238    0.85122    1.000
    N3981    N        0.50797    0.56694    0.82960    1.000
    Si3982   Si       0.59623    0.59531    0.82706    1.000
    Si3983   Si       0.49525    0.52513    0.84238    1.000
    Si3984   Si       0.61954    0.52202    0.82583    1.000
    N3985    N        0.62726    0.56499    0.83536    1.000
    N3986    N        0.65937    0.62558    0.85265    1.000
    N3987    N        0.70353    0.56900    0.84231    1.000
    Si3988   Si       0.66288    0.58167    0.85293    1.000
    N3989    N        0.49922    0.63721    0.83349    1.000
    N3990    N        0.58039    0.68987    0.85030    1.000
    N3991    N        0.51125    0.70930    0.84309    1.000
    Si3992   Si       0.56477    0.73301    0.84762    1.000
    N3993    N        0.60747    0.74228    0.83557    1.000
    Si3994   Si       0.50188    0.74907    0.82675    1.000
    N3995    N        0.73080    0.70338    0.85756    1.000
    Si3996   Si       0.61925    0.70018    0.86493    1.000
    N3997    N        0.64835    0.68951    0.83102    1.000
    N3998    N        0.67317    0.74531    0.85581    1.000
    Si3999   Si       0.67133    0.72361    0.81791    1.000
    Si4000   Si       0.64847    0.64847    0.81829    1.000
    Si4001   Si       0.57666    0.60237    0.89988    1.000
    N4002    N        0.50668    0.60057    0.89224    1.000
    N4003    N        0.56041    0.56926    0.92275    1.000
    Si4004   Si       0.52004    0.57819    0.92772    1.000
    N4005    N        0.49333    0.54505    0.92588    1.000
    N4006    N        0.57128    0.63118    0.93279    1.000
    N4007    N        0.61865    0.53272    0.92731    1.000
    N4008    N        0.62071    0.59985    0.90334    1.000
    N4009    N        0.67235    0.56582    0.89512    1.000
    Si4010   Si       0.64321    0.57067    0.92719    1.000
    N4011    N        0.73193    0.52252    0.88647    1.000
    Si4012   Si       0.71680    0.62125    0.92886    1.000
    N4013    N        0.67414    0.62726    0.92399    1.000
    Si4014   Si       0.71512    0.56199    0.88334    1.000
    Si4015   Si       0.64634    0.63206    0.89207    1.000
    N4016    N        0.73747    0.59080    0.90974    1.000
    N4017    N        0.55163    0.73820    0.88916    1.000
    N4018    N        0.51953    0.67824    0.91416    1.000
    Si4019   Si       0.58326    0.73834    0.91885    1.000
    Si4020   Si       0.51653    0.71255    0.88577    1.000
    N4021    N        0.57980    0.69792    0.93727    1.000
    Si4022   Si       0.60177    0.66123    0.93639    1.000
    N4023    N        0.73255    0.66012    0.92080    1.000
    N4024    N        0.62716    0.67061    0.90132    1.000
    Si4025   Si       0.70566    0.72997    0.87982    1.000
    N4026    N        0.68780    0.70918    0.91387    1.000
    N4027    N        0.62148    0.73391    0.89646    1.000
    Si4028   Si       0.64493    0.70753    0.92243    1.000
    N4029    N        0.51261    0.60312    0.96313    1.000
    N4030    N        0.58159    0.53464    0.98662    1.000
    Si4031   Si       0.54907    0.62442    0.96948    1.000
    Si4032   Si       0.57768    0.53448    0.94233    1.000
    N4033    N        0.57642    0.60549    0.99702    1.000
    N4034    N        0.64625    0.58486    0.96836    1.000
    N4035    N        0.71225    0.60843    0.96970    1.000
    Si4036   Si       0.67071    0.62555    0.96823    1.000
    N4037    N        0.53846    0.66519    0.98614    1.000
    N4038    N        0.52706    0.73288    0.95927    1.000
    Si4039   Si       0.53919    0.69009    0.95083    1.000
    Si4040   Si       0.55587    0.75310    0.98462    1.000
    Si4041   Si       0.71061    0.68917    0.94469    1.000
    N4042    N        0.72812    0.72099    0.96816    1.000
    Si4043   Si       0.62719    0.75665    0.97309    1.000
    Si4044   Si       0.64938    0.68480    0.99069    1.000
    N4045    N        0.62564    0.65035    0.97286    1.000
    N4046    N        0.64192    0.71758    0.96467    1.000
    N4047    N        0.68825    0.66702    0.97500    1.000
    N4048    N        0.54081    0.84914    0.03606    1.000
    Si4049   Si       0.51386    0.77178    0.03911    1.000
    N4050    N        0.60178    0.83276    0.00719    1.000
    N4051    N        0.54254    0.78788    0.00816    1.000
    Si4052   Si       0.60972    0.82262    0.04943    1.000
    Si4053   Si       0.55830    0.82794    0.00230    1.000
    Si4054   Si       0.56594    0.88203    0.04971    1.000
    Si4055   Si       0.66327    0.77703    0.03467    1.000
    N4056    N        0.70201    0.87412    0.04319    1.000
    N4057    N        0.69237    0.77264    0.00298    1.000
    Si4058   Si       0.71087    0.85809    0.00200    1.000
    N4059    N        0.65321    0.81713    0.04951    1.000
    N4060    N        0.62778    0.76202    0.01670    1.000
    N4061    N        0.49609    0.93383    0.04417    1.000
    N4062    N        0.57862    0.90704    0.01791    1.000
    N4063    N        0.52398    0.00228    0.03225    1.000
    Si4064   Si       0.62096    0.91978    0.01915    1.000
    N4065    N        0.69122    0.94143    0.02085    1.000
    Si4066   Si       0.70366    0.98237    0.03372    1.000
    Si4067   Si       0.68142    0.91448    0.05333    1.000
    N4068    N        0.73750    0.99204    0.00781    1.000
    N4069    N        0.66755    0.00074    0.01530    1.000
    Si4070   Si       0.55767    0.78470    0.09694    1.000
    N4071    N        0.53695    0.82229    0.10200    1.000
    Si4072   Si       0.51342    0.83701    0.06806    1.000
    N4073    N        0.59941    0.85999    0.06756    1.000
    N4074    N        0.58553    0.78816    0.06430    1.000
    N4075    N        0.71153    0.81618    0.08470    1.000
    N4076    N        0.66299    0.86395    0.10030    1.000
    Si4077   Si       0.71731    0.77407    0.08245    1.000
    Si4078   Si       0.68226    0.84463    0.06833    1.000
    Si4079   Si       0.50364    0.90952    0.08275    1.000
    N4080    N        0.54799    0.90450    0.08410    1.000
    N4081    N        0.52152    0.96936    0.09371    1.000
    Si4082   Si       0.50002    0.97528    0.05634    1.000
    Si4083   Si       0.67775    0.00017    0.10052    1.000
    N4084    N        0.64055    0.00698    0.07823    1.000
    Si4085   Si       0.73498    0.88939    0.07024    1.000
    N4086    N        0.70884    0.00410    0.07089    1.000
    Si4087   Si       0.62608    0.88632    0.09015    1.000
    N4088    N        0.63948    0.91321    0.06036    1.000
    N4089    N        0.71246    0.92346    0.08363    1.000
    Si4090   Si       0.59938    0.86909    0.16029    1.000
    Si4091   Si       0.53690    0.84015    0.14249    1.000
    Si4092   Si       0.58782    0.79099    0.16300    1.000
    N4093    N        0.57756    0.83267    0.15783    1.000
    N4094    N        0.57973    0.76506    0.12915    1.000
    N4095    N        0.51280    0.81738    0.17337    1.000
    N4096    N        0.71049    0.84089    0.15418    1.000
    Si4097   Si       0.67532    0.86360    0.14187    1.000
    Si4098   Si       0.73314    0.83228    0.11913    1.000
    N4099    N        0.64076    0.85576    0.16751    1.000
    N4100    N        0.71888    0.76179    0.12411    1.000
    N4101    N        0.53778    0.88496    0.14899    1.000
    N4102    N        0.57173    0.95413    0.13703    1.000
    N4103    N        0.60167    0.89480    0.12584    1.000
    Si4104   Si       0.59552    0.98206    0.16594    1.000
    Si4105   Si       0.56216    0.91391    0.12344    1.000
    N4106    N        0.53696    0.00812    0.15115    1.000
    Si4107   Si       0.55295    0.98764    0.11623    1.000
    N4108    N        0.68670    0.90419    0.15206    1.000
    Si4109   Si       0.70630    0.93186    0.12559    1.000
    N4110    N        0.68054    0.96768    0.13005    1.000
    Si4111   Si       0.66727    0.97027    0.17070    1.000
    Si4112   Si       0.53252    0.80288    0.21068    1.000
    N4113    N        0.56384    0.77736    0.19676    1.000
    N4114    N        0.50245    0.78102    0.23159    1.000
    Si4115   Si       0.64256    0.82651    0.19873    1.000
    Si4116   Si       0.71802    0.83897    0.19713    1.000
    N4117    N        0.68360    0.82132    0.21399    1.000
    N4118    N        0.71541    0.87966    0.21147    1.000
    N4119    N        0.63014    0.79235    0.17629    1.000
    N4120    N        0.51030    0.88742    0.22045    1.000
    Si4121   Si       0.53884    0.90192    0.19115    1.000
    N4122    N        0.57713    0.99674    0.20354    1.000
    N4123    N        0.51571    0.94103    0.18512    1.000
    N4124    N        0.58173    0.89616    0.19335    1.000
    N4125    N        0.49914    0.00313    0.21510    1.000
    Si4126   Si       0.51032    0.98385    0.17762    1.000
    Si4127   Si       0.61183    0.92592    0.20603    1.000
    N4128    N        0.62732    0.95549    0.17877    1.000
    Si4129   Si       0.68650    0.90746    0.19574    1.000
    N4130    N        0.70031    0.95235    0.19561    1.000
    N4131    N        0.64983    0.90543    0.21918    1.000
    Si4132   Si       0.74258    0.94851    0.18099    1.000
    Si4133   Si       0.58769    0.81829    0.26189    1.000
    Si4134   Si       0.52404    0.86171    0.25384    1.000
    N4135    N        0.49927    0.83679    0.28113    1.000
    N4136    N        0.55228    0.83103    0.23862    1.000
    N4137    N        0.59521    0.77916    0.28448    1.000
    Si4138   Si       0.49200    0.79090    0.27319    1.000
    Si4139   Si       0.66665    0.82714    0.25253    1.000
    N4140    N        0.66836    0.78956    0.26960    1.000
    N4141    N        0.67692    0.86297    0.27544    1.000
    N4142    N        0.62512    0.82756    0.23839    1.000
    N4143    N        0.54669    0.88811    0.27989    1.000
    Si4144   Si       0.56463    0.97671    0.24189    1.000
    N4145    N        0.52765    0.95920    0.25613    1.000
    N4146    N        0.59641    0.94628    0.24105    1.000
    Si4147   Si       0.60371    0.94306    0.28341    1.000
    Si4148   Si       0.53250    0.92934    0.28684    1.000
    Si4149   Si       0.48938    0.97920    0.25103    1.000
    Si4150   Si       0.72447    0.01114    0.28396    1.000
    N4151    N        0.61916    0.90236    0.28524    1.000
    Si4152   Si       0.69503    0.96707    0.24028    1.000
    N4153    N        0.66052    0.99140    0.25069    1.000
    Si4154   Si       0.65839    0.90062    0.26118    1.000
    N4155    N        0.72689    0.99584    0.24334    1.000
    Si4156   Si       0.73598    0.90855    0.24665    1.000
    N4157    N        0.69563    0.92636    0.25981    1.000
    N4158    N        0.59457    0.84003    0.29979    1.000
    Si4159   Si       0.60737    0.80353    0.31858    1.000
    Si4160   Si       0.50896    0.76209    0.34338    1.000
    N4161    N        0.49379    0.75736    0.30206    1.000
    Si4162   Si       0.58443    0.88346    0.30370    1.000
    N4163    N        0.56803    0.88701    0.34617    1.000
    N4164    N        0.72063    0.81987    0.30876    1.000
    N4165    N        0.65041    0.80242    0.33208    1.000
    Si4166   Si       0.68643    0.79258    0.30950    1.000
    Si4167   Si       0.71339    0.86167    0.29924    1.000
    N4168    N        0.49799    0.93332    0.31306    1.000
    Si4169   Si       0.56719    0.97498    0.33950    1.000
    N4170    N        0.56758    0.94602    0.30622    1.000
    Si4171   Si       0.65179    0.99811    0.29273    1.000
    N4172    N        0.69265    0.99124    0.30660    1.000
    N4173    N        0.70592    0.89064    0.33362    1.000
    N4174    N        0.62938    0.96583    0.30848    1.000
    Si4175   Si       0.69895    0.98226    0.34874    1.000
    Si4176   Si       0.53366    0.87062    0.36640    1.000
    N4177    N        0.54671    0.84065    0.39422    1.000
    Si4178   Si       0.58035    0.81470    0.39776    1.000
    N4179    N        0.58629    0.79841    0.35696    1.000
    N4180    N        0.50060    0.79865    0.36620    1.000
    N4181    N        0.49382    0.86453    0.35106    1.000
    Si4182   Si       0.57651    0.75957    0.37495    1.000
    Si4183   Si       0.51457    0.81308    0.41069    1.000
    N4184    N        0.73401    0.82027    0.40027    1.000
    N4185    N        0.67690    0.84874    0.37969    1.000
    Si4186   Si       0.65103    0.81343    0.37491    1.000
    N4187    N        0.67196    0.77856    0.38997    1.000
    Si4188   Si       0.71493    0.78007    0.39615    1.000
    N4189    N        0.62174    0.82507    0.40678    1.000
    Si4190   Si       0.71108    0.86143    0.40656    1.000
    Si4191   Si       0.49025    0.95808    0.36660    1.000
    N4192    N        0.53005    0.97081    0.36278    1.000
    N4193    N        0.59396    0.95377    0.36777    1.000
    N4194    N        0.52018    0.90111    0.39762    1.000
    Si4195   Si       0.59379    0.90968    0.37234    1.000
    Si4196   Si       0.58536    0.96912    0.40775    1.000
    Si4197   Si       0.67541    0.89031    0.36566    1.000
    N4198    N        0.63686    0.90839    0.35705    1.000
    N4199    N        0.66221    0.97412    0.36827    1.000
    N4200    N        0.69350    0.90639    0.40307    1.000
    N4201    N        0.73297    0.95329    0.35480    1.000
    Si4202   Si       0.63266    0.95096    0.34871    1.000
    Si4203   Si       0.57263    0.77923    0.45884    1.000
    N4204    N        0.52223    0.82994    0.45371    1.000
    N4205    N        0.56539    0.77695    0.41499    1.000
    N4206    N        0.49708    0.77573    0.42816    1.000
    N4207    N        0.58631    0.81956    0.46512    1.000
    Si4208   Si       0.67513    0.76347    0.44830    1.000
    Si4209   Si       0.62576    0.82929    0.44886    1.000
    N4210    N        0.70694    0.85021    0.44902    1.000
    N4211    N        0.71711    0.76968    0.43785    1.000
    Si4212   Si       0.72967    0.81322    0.45138    1.000
    N4213    N        0.64877    0.79490    0.46209    1.000
    N4214    N        0.63677    0.86871    0.46149    1.000
    N4215    N        0.56080    0.88678    0.46270    1.000
    N4216    N        0.59116    0.90548    0.41439    1.000
    Si4217   Si       0.51260    0.97081    0.44154    1.000
    N4218    N        0.55146    0.95332    0.43338    1.000
    Si4219   Si       0.54736    0.91022    0.42967    1.000
    Si4220   Si       0.60531    0.90158    0.45666    1.000
    N4221    N        0.49322    0.93421    0.45894    1.000
    Si4222   Si       0.66203    0.98756    0.40971    1.000
    Si4223   Si       0.70808    0.93150    0.43789    1.000
    N4224    N        0.69671    0.97170    0.43100    1.000
    N4225    N        0.62521    0.97404    0.42673    1.000
    N4226    N        0.53993    0.77415    0.48819    1.000
    N4227    N        0.54930    0.85277    0.51863    1.000
    Si4228   Si       0.55417    0.84641    0.47654    1.000
    Si4229   Si       0.50004    0.77858    0.47039    1.000
    Si4230   Si       0.63584    0.77054    0.49613    1.000
    N4231    N        0.68097    0.85408    0.51393    1.000
    N4232    N        0.72970    0.80805    0.49887    1.000
    Si4233   Si       0.67875    0.87341    0.47314    1.000
    Si4234   Si       0.49096    0.91329    0.49595    1.000
    N4235    N        0.58165    0.00413    0.47512    1.000
    N4236    N        0.51197    0.99548    0.47793    1.000
    N4237    N        0.60969    0.93460    0.48278    1.000
    Si4238   Si       0.54664    0.00541    0.50125    1.000
    Si4239   Si       0.68621    0.00540    0.50452    1.000
    Si4240   Si       0.61453    0.97557    0.47031    1.000
    N4241    N        0.64694    0.99381    0.49126    1.000
    N4242    N        0.70828    0.97024    0.51512    1.000
    N4243    N        0.68996    0.91378    0.47386    1.000
    Si4244   Si       0.69404    0.92840    0.51436    1.000
    Si4245   Si       0.53809    0.82802    0.55527    1.000
    N4246    N        0.56911    0.79834    0.54977    1.000
    Si4247   Si       0.61081    0.80536    0.55973    1.000
    Si4248   Si       0.57417    0.87372    0.54911    1.000
    N4249    N        0.49538    0.82847    0.55447    1.000
    N4250    N        0.61012    0.85181    0.54885    1.000
    Si4251   Si       0.54886    0.76397    0.52914    1.000
    N4252    N        0.55103    0.85871    0.58536    1.000
    N4253    N        0.61754    0.76153    0.58213    1.000
    Si4254   Si       0.66454    0.77431    0.57202    1.000
    N4255    N        0.69804    0.80856    0.57003    1.000
    Si4256   Si       0.64820    0.87048    0.53823    1.000
    Si4257   Si       0.71188    0.83133    0.53238    1.000
    N4258    N        0.66380    0.87064    0.57958    1.000
    N4259    N        0.64169    0.78997    0.53452    1.000
    Si4260   Si       0.54530    0.94596    0.54981    1.000
    N4261    N        0.55161    0.98530    0.53885    1.000
    N4262    N        0.57951    0.91573    0.54059    1.000
    N4263    N        0.50935    0.92906    0.53278    1.000
    N4264    N        0.65349    0.91286    0.52865    1.000
    N4265    N        0.72052    0.91114    0.54264    1.000
    N4266    N        0.61875    0.97292    0.54949    1.000
    Si4267   Si       0.69797    0.89756    0.57851    1.000
    Si4268   Si       0.61576    0.93452    0.52607    1.000
    N4269    N        0.53226    0.77378    0.61809    1.000
    N4270    N        0.49858    0.83631    0.62211    1.000
    Si4271   Si       0.57795    0.84375    0.61941    1.000
    N4272    N        0.60485    0.87657    0.62658    1.000
    Si4273   Si       0.51297    0.87435    0.60164    1.000
    N4274    N        0.61167    0.81881    0.60365    1.000
    Si4275   Si       0.52179    0.80639    0.64523    1.000
    Si4276   Si       0.62321    0.77976    0.62129    1.000
    Si4277   Si       0.64029    0.85299    0.61116    1.000
    N4278    N        0.72241    0.87081    0.60839    1.000
    Si4279   Si       0.70720    0.83188    0.60603    1.000
    N4280    N        0.66760    0.77010    0.61840    1.000
    N4281    N        0.67220    0.83537    0.63473    1.000
    N4282    N        0.73525    0.80558    0.62704    1.000
    N4283    N        0.58657    0.00507    0.60321    1.000
    Si4284   Si       0.53725    0.93533    0.63351    1.000
    N4285    N        0.54201    0.94481    0.59281    1.000
    N4286    N        0.52125    0.89535    0.63888    1.000
    Si4287   Si       0.61013    0.91556    0.64520    1.000
    N4288    N        0.65840    0.99621    0.60148    1.000
    Si4289   Si       0.61859    0.97901    0.59267    1.000
    Si4290   Si       0.72528    0.90710    0.63315    1.000
    N4291    N        0.62705    0.94511    0.61706    1.000
    N4292    N        0.69764    0.93077    0.60718    1.000
    Si4293   Si       0.66975    0.95959    0.62104    1.000
    N4294    N        0.55728    0.82671    0.65678    1.000
    N4295    N        0.49996    0.78885    0.67856    1.000
    Si4296   Si       0.56811    0.84072    0.69663    1.000
    N4297    N        0.58443    0.88096    0.70316    1.000
    N4298    N        0.70867    0.81984    0.68391    1.000
    N4299    N        0.64909    0.78434    0.67651    1.000
    Si4300   Si       0.68627    0.85632    0.67109    1.000
    Si4301   Si       0.68597    0.79405    0.65211    1.000
    N4302    N        0.65348    0.85107    0.69961    1.000
    N4303    N        0.57294    0.93347    0.66143    1.000
    Si4304   Si       0.50389    0.99177    0.67091    1.000
    N4305    N        0.50055    0.95345    0.64952    1.000
    Si4306   Si       0.69295    0.99611    0.68994    1.000
    N4307    N        0.63637    0.91204    0.67968    1.000
    N4308    N        0.68227    0.96556    0.66237    1.000
    Si4309   Si       0.67585    0.92689    0.68212    1.000
    N4310    N        0.70314    0.89541    0.66888    1.000
    N4311    N        0.53583    0.84570    0.72462    1.000
    Si4312   Si       0.58413    0.77593    0.73498    1.000
    N4313    N        0.54095    0.77253    0.72940    1.000
    N4314    N        0.59737    0.81189    0.71277    1.000
    Si4315   Si       0.54744    0.88031    0.74783    1.000
    Si4316   Si       0.51457    0.78041    0.76189    1.000
    N4317    N        0.67046    0.80056    0.74244    1.000
    Si4318   Si       0.71134    0.81346    0.73021    1.000
    Si4319   Si       0.64187    0.81030    0.71146    1.000
    N4320    N        0.70993    0.84911    0.75410    1.000
    Si4321   Si       0.52193    0.00241    0.74523    1.000
    N4322    N        0.54475    0.92042    0.73203    1.000
    Si4323   Si       0.50632    0.93951    0.72259    1.000
    N4324    N        0.60537    0.95779    0.71582    1.000
    N4325    N        0.51818    0.97819    0.70929    1.000
    Si4326   Si       0.57765    0.92708    0.70521    1.000
    Si4327   Si       0.71514    0.94633    0.74029    1.000
    N4328    N        0.63407    0.90240    0.74840    1.000
    Si4329   Si       0.62637    0.88434    0.71012    1.000
    N4330    N        0.67600    0.94246    0.72505    1.000
    N4331    N        0.72410    0.98335    0.71814    1.000
    Si4332   Si       0.63641    0.94416    0.74385    1.000
    Si4333   Si       0.61641    0.99893    0.70343    1.000
    N4334    N        0.52448    0.81416    0.78863    1.000
    N4335    N        0.59701    0.78113    0.77728    1.000
    Si4336   Si       0.55267    0.86524    0.80958    1.000
    N4337    N        0.58038    0.87800    0.77931    1.000
    N4338    N        0.51968    0.87881    0.78384    1.000
    Si4339   Si       0.49036    0.83966    0.77216    1.000
    Si4340   Si       0.61384    0.81409    0.80336    1.000
    N4341    N        0.63956    0.84325    0.78276    1.000
    N4342    N        0.71499    0.79338    0.78568    1.000
    Si4343   Si       0.68243    0.82778    0.78161    1.000
    Si4344   Si       0.69072    0.76193    0.76928    1.000
    N4345    N        0.55168    0.98726    0.77349    1.000
    Si4346   Si       0.59452    0.99768    0.77557    1.000
    Si4347   Si       0.54039    0.98654    0.81606    1.000
    Si4348   Si       0.62357    0.88288    0.78468    1.000
    Si4349   Si       0.71363    0.00251    0.78958    1.000
    Si4350   Si       0.74008    0.93705    0.81090    1.000
    Si4351   Si       0.61923    0.95126    0.81939    1.000
    N4352    N        0.71555    0.95851    0.78223    1.000
    N4353    N        0.62378    0.96614    0.77822    1.000
    N4354    N        0.51930    0.83042    0.85701    1.000
    Si4355   Si       0.59741    0.83461    0.86867    1.000
    N4356    N        0.57820    0.83058    0.82905    1.000
    N4357    N        0.54193    0.76418    0.83067    1.000
    Si4358   Si       0.54192    0.80576    0.82775    1.000
    Si4359   Si       0.53298    0.86536    0.87849    1.000
    Si4360   Si       0.66785    0.83172    0.85599    1.000
    N4361    N        0.63469    0.85798    0.86314    1.000
    N4362    N        0.64194    0.80013    0.83466    1.000
    Si4363   Si       0.63407    0.76670    0.86498    1.000
    N4364    N        0.69277    0.84398    0.82337    1.000
    Si4365   Si       0.73087    0.86390    0.82887    1.000
    N4366    N        0.73312    0.88119    0.86928    1.000
    N4367    N        0.50679    0.96721    0.83638    1.000
    N4368    N        0.54768    0.89004    0.84451    1.000
    Si4369   Si       0.56225    0.92948    0.85558    1.000
    N4370    N        0.57512    0.95916    0.82682    1.000
    Si4371   Si       0.68415    0.97922    0.84983    1.000
    N4372    N        0.71362    0.94679    0.84548    1.000
    Si4373   Si       0.63734    0.90064    0.86243    1.000
    N4374    N        0.64305    0.98047    0.84033    1.000
    N4375    N        0.63296    0.91009    0.81893    1.000
    N4376    N        0.56999    0.85065    0.89770    1.000
    N4377    N        0.51053    0.87934    0.91309    1.000
    N4378    N        0.61451    0.79931    0.88993    1.000
    N4379    N        0.68000    0.81873    0.89560    1.000
    Si4380   Si       0.71806    0.80252    0.90571    1.000
    Si4381   Si       0.64210    0.81328    0.92017    1.000
    N4382    N        0.72920    0.76303    0.89113    1.000
    N4383    N        0.54905    0.95240    0.89185    1.000
    Si4384   Si       0.58557    0.93598    0.91400    1.000
    N4385    N        0.49318    0.00685    0.89804    1.000
    Si4386   Si       0.50810    0.96900    0.88324    1.000
    N4387    N        0.59845    0.91446    0.87647    1.000
    N4388    N        0.68511    0.98183    0.89365    1.000
    Si4389   Si       0.62037    0.00534    0.92308    1.000
    N4390    N        0.62187    0.96036    0.91685    1.000
    N4391    N        0.66970    0.91724    0.88541    1.000
    N4392    N        0.73667    0.93184    0.91356    1.000
    Si4393   Si       0.66356    0.95106    0.91323    1.000
    Si4394   Si       0.71402    0.92012    0.87931    1.000
    N4395    N        0.54670    0.84504    0.96387    1.000
    Si4396   Si       0.51077    0.86990    0.95732    1.000
    N4397    N        0.58711    0.76116    0.95577    1.000
    Si4398   Si       0.58180    0.86365    0.93797    1.000
    Si4399   Si       0.63408    0.85314    0.98453    1.000
    Si4400   Si       0.68705    0.80045    0.97110    1.000
    N4401    N        0.72234    0.80115    0.94795    1.000
    N4402    N        0.65270    0.78515    0.95059    1.000
    N4403    N        0.67547    0.83822    0.98585    1.000
    N4404    N        0.62254    0.84840    0.94261    1.000
    N4405    N        0.51512    0.90366    0.98107    1.000
    Si4406   Si       0.55641    0.91858    0.98213    1.000
    N4407    N        0.55182    0.96235    0.98291    1.000
    Si4408   Si       0.58844    0.98668    0.98830    1.000
    N4409    N        0.57820    0.90679    0.94597    1.000
    Si4410   Si       0.51709    0.98785    0.99099    1.000
    Si4411   Si       0.65532    0.97738    0.98108    1.000
    Si4412   Si       0.68218    0.91731    0.98179    1.000
    N4413    N        0.71591    0.89246    0.97495    1.000
    N4414    N        0.65270    0.00854    0.95365    1.000
    N4415    N        0.67418    0.94754    0.95478    1.000
    N4416    N        0.64742    0.89377    0.99474    1.000
    N4417    N        0.61988    0.95709    0.99711    1.000
    N4418    N        0.73416    0.99838    0.93999    1.000
    N4419    N        0.82684    0.05497    0.02741    1.000
    Si4420   Si       0.85003    0.09192    0.02015    1.000
    N4421    N        0.82299    0.11908    0.99949    1.000
    N4422    N        0.78017    0.13270    0.05483    1.000
    N4423    N        0.94446    0.11681    0.00495    1.000
    N4424    N        0.88552    0.07659    0.00179    1.000
    Si4425   Si       0.98648    0.11718    0.01545    1.000
    N4426    N        0.74246    0.17391    0.02391    1.000
    Si4427   Si       0.79734    0.14967    0.01634    1.000
    N4428    N        0.82133    0.18253    0.03225    1.000
    N4429    N        0.75857    0.24159    0.04861    1.000
    Si4430   Si       0.98487    0.19057    0.03160    1.000
    Si4431   Si       0.92321    0.14255    0.03073    1.000
    Si4432   Si       0.86345    0.18029    0.03198    1.000
    N4433    N        0.87863    0.21888    0.01953    1.000
    N4434    N        0.92917    0.25058    0.00711    1.000
    N4435    N        0.88818    0.15529    0.00679    1.000
    Si4436   Si       0.91834    0.20866    0.00149    1.000
    N4437    N        0.94355    0.18205    0.02692    1.000
    N4438    N        0.79632    0.08522    0.09351    1.000
    N4439    N        0.84233    0.03186    0.09165    1.000
    Si4440   Si       0.81301    0.05527    0.06786    1.000
    N4441    N        0.78010    0.02344    0.06782    1.000
    Si4442   Si       0.75511    0.10064    0.07542    1.000
    Si4443   Si       0.81497    0.12448    0.08028    1.000
    N4444    N        0.85054    0.11321    0.05777    1.000
    N4445    N        0.92341    0.11818    0.06675    1.000
    Si4446   Si       0.94951    0.08155    0.07610    1.000
    Si4447   Si       0.93291    0.02187    0.09336    1.000
    N4448    N        0.95599    0.04004    0.06112    1.000
    Si4449   Si       0.88542    0.12806    0.08267    1.000
    N4450    N        0.91349    0.06007    0.10279    1.000
    N4451    N        0.98637    0.10246    0.05787    1.000
    N4452    N        0.75962    0.19426    0.09567    1.000
    Si4453   Si       0.74626    0.23542    0.09062    1.000
    N4454    N        0.85431    0.23325    0.10581    1.000
    Si4455   Si       0.74794    0.16410    0.06623    1.000
    N4456    N        0.81363    0.15185    0.11494    1.000
    Si4457   Si       0.88271    0.20157    0.10066    1.000
    N4458    N        0.92235    0.21808    0.10123    1.000
    Si4459   Si       0.96517    0.20389    0.09915    1.000
    N4460    N        0.88034    0.17024    0.07139    1.000
    N4461    N        0.79733    0.03520    0.14605    1.000
    Si4462   Si       0.83590    0.01803    0.13308    1.000
    Si4463   Si       0.77846    0.06850    0.12679    1.000
    N4464    N        0.78390    0.09400    0.16142    1.000
    N4465    N        0.86448    0.04320    0.15337    1.000
    N4466    N        0.87358    0.11468    0.12264    1.000
    Si4467   Si       0.95464    0.08262    0.15772    1.000
    Si4468   Si       0.88733    0.07425    0.13279    1.000
    N4469    N        0.91131    0.08046    0.17077    1.000
    N4470    N        0.96815    0.09422    0.11774    1.000
    N4471    N        0.76022    0.16215    0.16361    1.000
    Si4472   Si       0.84972    0.14624    0.14136    1.000
    N4473    N        0.79955    0.21534    0.14455    1.000
    Si4474   Si       0.78328    0.18049    0.12819    1.000
    Si4475   Si       0.83957    0.23183    0.14734    1.000
    Si4476   Si       0.77785    0.25585    0.15249    1.000
    N4477    N        0.97467    0.23826    0.12505    1.000
    Si4478   Si       0.93395    0.25143    0.12805    1.000
    Si4479   Si       0.96336    0.16194    0.15770    1.000
    N4480    N        0.87903    0.17898    0.13615    1.000
    N4481    N        0.97055    0.16323    0.11442    1.000
    N4482    N        0.93900    0.19501    0.17412    1.000
    N4483    N        0.81944    0.05499    0.21750    1.000
    Si4484   Si       0.79172    0.05724    0.18426    1.000
    N4485    N        0.75146    0.04384    0.19690    1.000
    N4486    N        0.79007    0.12152    0.22459    1.000
    Si4487   Si       0.89440    0.04196    0.18588    1.000
    Si4488   Si       0.91697    0.11855    0.19580    1.000
    N4489    N        0.89056    0.03396    0.22730    1.000
    N4490    N        0.95655    0.12378    0.17805    1.000
    N4491    N        0.96669    0.04473    0.17588    1.000
    Si4492   Si       0.78915    0.13181    0.18030    1.000
    N4493    N        0.82807    0.14750    0.17894    1.000
    Si4494   Si       0.85299    0.22367    0.22360    1.000
    N4495    N        0.76063    0.21610    0.21212    1.000
    Si4496   Si       0.85242    0.15133    0.21531    1.000
    Si4497   Si       0.77727    0.25479    0.22154    1.000
    N4498    N        0.81956    0.24952    0.23124    1.000
    Si4499   Si       0.95509    0.23124    0.19212    1.000
    Si4500   Si       0.89554    0.19230    0.17414    1.000
    N4501    N        0.86465    0.22107    0.18217    1.000
    N4502    N        0.89194    0.15389    0.19437    1.000
    Si4503   Si       0.81737    0.09257    0.24201    1.000
    Si4504   Si       0.75485    0.12671    0.24894    1.000
    N4505    N        0.81450    0.07858    0.28323    1.000
    N4506    N        0.85464    0.11330    0.23563    1.000
    N4507    N        0.85062    0.01955    0.27424    1.000
    Si4508   Si       0.83357    0.01744    0.23246    1.000
    N4509    N        0.97072    0.05715    0.24717    1.000
    Si4510   Si       0.95958    0.09830    0.25868    1.000
    Si4511   Si       0.88875    0.11015    0.26274    1.000
    N4512    N        0.92273    0.10819    0.23688    1.000
    Si4513   Si       0.89257    0.01055    0.26473    1.000
    N4514    N        0.88481    0.07773    0.29059    1.000
    Si4515   Si       0.74429    0.19830    0.24845    1.000
    N4516    N        0.77510    0.19931    0.27756    1.000
    Si4517   Si       0.85718    0.17784    0.28378    1.000
    N4518    N        0.84462    0.18566    0.24304    1.000
    Si4519   Si       0.78320    0.24142    0.29029    1.000
    N4520    N        0.95173    0.22977    0.23639    1.000
    N4521    N        0.87948    0.24715    0.24908    1.000
    N4522    N        0.89168    0.14873    0.28128    1.000
    Si4523   Si       0.78655    0.09437    0.31264    1.000
    N4524    N        0.74906    0.08615    0.33338    1.000
    Si4525   Si       0.84950    0.05464    0.30007    1.000
    N4526    N        0.84131    0.03676    0.34337    1.000
    N4527    N        0.81454    0.09957    0.34536    1.000
    N4528    N        0.76664    0.12779    0.28989    1.000
    Si4529   Si       0.92196    0.06440    0.31465    1.000
    N4530    N        0.96137    0.04618    0.32736    1.000
    Si4531   Si       0.97182    0.12762    0.32545    1.000
    N4532    N        0.94700    0.10245    0.30028    1.000
    N4533    N        0.91225    0.01891    0.30447    1.000
    N4534    N        0.90247    0.06302    0.35375    1.000
    N4535    N        0.87633    0.13299    0.34620    1.000
    N4536    N        0.75609    0.24156    0.32397    1.000
    N4537    N        0.75638    0.16815    0.33623    1.000
    N4538    N        0.82535    0.15763    0.30473    1.000
    Si4539   Si       0.78350    0.16448    0.30261    1.000
    Si4540   Si       0.83336    0.13900    0.34237    1.000
    N4541    N        0.98107    0.21451    0.30414    1.000
    Si4542   Si       0.88802    0.22618    0.34598    1.000
    Si4543   Si       0.95366    0.24465    0.32368    1.000
    Si4544   Si       0.89979    0.15921    0.32333    1.000
    N4545    N        0.94060    0.15522    0.33925    1.000
    N4546    N        0.87716    0.19647    0.31950    1.000
    Si4547   Si       0.82612    0.06804    0.37360    1.000
    N4548    N        0.85764    0.09014    0.39874    1.000
    N4549    N        0.79693    0.05496    0.40452    1.000
    Si4550   Si       0.78917    0.01142    0.40168    1.000
    Si4551   Si       0.89049    0.10151    0.37239    1.000
    N4552    N        0.92493    0.11389    0.39370    1.000
    N4553    N        0.90321    0.01373    0.39844    1.000
    Si4554   Si       0.88584    0.02283    0.35805    1.000
    Si4555   Si       0.73914    0.24955    0.39600    1.000
    N4556    N        0.82471    0.24107    0.37333    1.000
    Si4557   Si       0.77145    0.17192    0.37951    1.000
    N4558    N        0.74652    0.20808    0.38213    1.000
    N4559    N        0.81467    0.16598    0.37024    1.000
    Si4560   Si       0.83678    0.20012    0.38618    1.000
    Si4561   Si       0.94837    0.18604    0.36928    1.000
    N4562    N        0.87924    0.20578    0.38437    1.000
    N4563    N        0.93072    0.22142    0.35042    1.000
    Si4564   Si       0.90871    0.22095    0.40969    1.000
    Si4565   Si       0.77153    0.05528    0.43864    1.000
    N4566    N        0.75139    0.01792    0.42264    1.000
    Si4567   Si       0.85981    0.09152    0.44361    1.000
    N4568    N        0.74003    0.08657    0.44167    1.000
    N4569    N        0.86569    0.04824    0.45540    1.000
    Si4570   Si       0.90446    0.03252    0.43790    1.000
    N4571    N        0.93473    0.06394    0.44202    1.000
    Si4572   Si       0.92773    0.10508    0.43398    1.000
    Si4573   Si       0.97420    0.04618    0.44325    1.000
    N4574    N        0.96183    0.12815    0.44749    1.000
    N4575    N        0.89323    0.11372    0.45812    1.000
    N4576    N        0.82098    0.20756    0.42741    1.000
    N4577    N        0.77079    0.15362    0.41959    1.000
    Si4578   Si       0.79518    0.17956    0.44442    1.000
    Si4579   Si       0.81486    0.25115    0.41442    1.000
    Si4580   Si       0.76867    0.24230    0.46413    1.000
    N4581    N        0.93872    0.19002    0.41342    1.000
    Si4582   Si       0.95426    0.17122    0.45047    1.000
    N4583    N        0.89773    0.23215    0.45185    1.000
    Si4584   Si       0.83224    0.04828    0.48640    1.000
    Si4585   Si       0.77433    0.05227    0.51289    1.000
    N4586    N        0.79054    0.03642    0.47297    1.000
    N4587    N        0.82674    0.09342    0.47228    1.000
    N4588    N        0.74707    0.08513    0.50626    1.000
    Si4589   Si       0.82770    0.12896    0.50140    1.000
    N4590    N        0.98238    0.02126    0.47898    1.000
    N4591    N        0.93616    0.11413    0.51995    1.000
    Si4592   Si       0.78062    0.17727    0.50766    1.000
    N4593    N        0.81073    0.16164    0.47918    1.000
    N4594    N        0.80853    0.25330    0.48074    1.000
    N4595    N        0.76202    0.20037    0.46930    1.000
    N4596    N        0.95370    0.22793    0.49617    1.000
    Si4597   Si       0.91313    0.21446    0.48842    1.000
    N4598    N        0.86695    0.13823    0.51867    1.000
    N4599    N        0.92002    0.17127    0.48000    1.000
    Si4600   Si       0.90580    0.13202    0.49451    1.000
    N4601    N        0.88352    0.22229    0.51919    1.000
    Si4602   Si       0.82738    0.04017    0.56673    1.000
    N4603    N        0.75260    0.02331    0.53613    1.000
    Si4604   Si       0.75588    0.01781    0.57977    1.000
    N4605    N        0.81621    0.05898    0.52904    1.000
    N4606    N        0.79230    0.13386    0.53242    1.000
    Si4607   Si       0.74981    0.12028    0.52823    1.000
    Si4608   Si       0.79581    0.13621    0.57630    1.000
    Si4609   Si       0.96333    0.09550    0.54749    1.000
    N4610    N        0.84598    0.18984    0.56772    1.000
    Si4611   Si       0.80584    0.20799    0.57573    1.000
    N4612    N        0.83027    0.25065    0.55911    1.000
    N4613    N        0.78893    0.20991    0.53451    1.000
    Si4614   Si       0.80382    0.24957    0.52494    1.000
    Si4615   Si       0.86531    0.15137    0.55988    1.000
    N4616    N        0.90324    0.14785    0.57934    1.000
    Si4617   Si       0.86815    0.22732    0.55759    1.000
    N4618    N        0.89809    0.23090    0.58712    1.000
    Si4619   Si       0.78912    0.07365    0.62140    1.000
    Si4620   Si       0.85553    0.09864    0.61019    1.000
    N4621    N        0.76982    0.10577    0.59589    1.000
    N4622    N        0.79225    0.03775    0.59354    1.000
    N4623    N        0.85849    0.05961    0.59076    1.000
    N4624    N        0.82578    0.09335    0.64262    1.000
    N4625    N        0.83764    0.12490    0.58207    1.000
    Si4626   Si       0.92695    0.12177    0.60666    1.000
    Si4627   Si       0.94807    0.04663    0.60803    1.000
    N4628    N        0.89292    0.10278    0.62842    1.000
    Si4629   Si       0.87948    0.02129    0.59170    1.000
    N4630    N        0.94749    0.08602    0.58731    1.000
    N4631    N        0.92307    0.01785    0.58441    1.000
    N4632    N        0.98729    0.04457    0.62915    1.000
    Si4633   Si       0.75021    0.18960    0.61723    1.000
    N4634    N        0.80285    0.23334    0.61204    1.000
    N4635    N        0.78075    0.17368    0.58847    1.000
    N4636    N        0.73812    0.23050    0.60167    1.000
    N4637    N        0.94788    0.14793    0.63568    1.000
    Si4638   Si       0.98817    0.16493    0.62633    1.000
    N4639    N        0.96374    0.23427    0.62351    1.000
    Si4640   Si       0.92200    0.24607    0.61935    1.000
    Si4641   Si       0.83646    0.09422    0.68425    1.000
    N4642    N        0.75917    0.06396    0.65087    1.000
    Si4643   Si       0.74169    0.05235    0.68921    1.000
    N4644    N        0.86854    0.06398    0.68635    1.000
    Si4645   Si       0.90343    0.07858    0.66299    1.000
    Si4646   Si       0.96840    0.04615    0.66938    1.000
    N4647    N        0.92936    0.10257    0.68745    1.000
    N4648    N        0.92886    0.04405    0.65056    1.000
    Si4649   Si       0.81014    0.21114    0.65142    1.000
    Si4650   Si       0.75332    0.17502    0.68977    1.000
    N4651    N        0.82863    0.24405    0.67354    1.000
    N4652    N        0.77229    0.19118    0.65514    1.000
    N4653    N        0.84020    0.18048    0.65435    1.000
    Si4654   Si       0.85979    0.16998    0.69142    1.000
    Si4655   Si       0.79465    0.25397    0.69951    1.000
    N4656    N        0.95471    0.21843    0.69206    1.000
    Si4657   Si       0.98521    0.18965    0.69677    1.000
    Si4658   Si       0.93246    0.14376    0.67651    1.000
    N4659    N        0.90210    0.17538    0.68227    1.000
    Si4660   Si       0.97245    0.24810    0.66208    1.000
    Si4661   Si       0.91325    0.21659    0.69016    1.000
    N4662    N        0.90056    0.24570    0.65936    1.000
    Si4663   Si       0.78966    0.12253    0.73610    1.000
    Si4664   Si       0.80531    0.05159    0.73086    1.000
    N4665    N        0.83535    0.02046    0.72751    1.000
    N4666    N        0.75208    0.10866    0.75291    1.000
    N4667    N        0.77045    0.03538    0.71577    1.000
    N4668    N        0.80558    0.08936    0.71379    1.000
    N4669    N        0.85550    0.12900    0.70408    1.000
    Si4670   Si       0.85765    0.12926    0.74741    1.000
    Si4671   Si       0.96259    0.10038    0.71747    1.000
    N4672    N        0.94131    0.07088    0.74443    1.000
    Si4673   Si       0.87378    0.03026    0.71243    1.000
    N4674    N        0.89817    0.02510    0.75009    1.000
    Si4675   Si       0.94346    0.02748    0.74047    1.000
    N4676    N        0.96410    0.01730    0.70304    1.000
    N4677    N        0.77260    0.22601    0.72520    1.000
    N4678    N        0.78045    0.16170    0.71927    1.000
    Si4679   Si       0.79879    0.19362    0.74280    1.000
    N4680    N        0.84019    0.18983    0.72698    1.000
    N4681    N        0.96408    0.14942    0.70750    1.000
    N4682    N        0.89624    0.22927    0.72760    1.000
    Si4683   Si       0.98468    0.15170    0.74759    1.000
    Si4684   Si       0.87332    0.20006    0.75265    1.000
    Si4685   Si       0.83489    0.08807    0.78552    1.000
    Si4686   Si       0.78165    0.03251    0.80088    1.000
    N4687    N        0.80626    0.05651    0.77580    1.000
    N4688    N        0.82027    0.12766    0.77232    1.000
    N4689    N        0.75446    0.06337    0.81467    1.000
    N4690    N        0.75411    0.12976    0.81460    1.000
    N4691    N        0.75359    0.00983    0.77565    1.000
    N4692    N        0.92354    0.10470    0.80257    1.000
    Si4693   Si       0.90645    0.06962    0.77362    1.000
    N4694    N        0.91049    0.04585    0.81146    1.000
    N4695    N        0.96200    0.01298    0.77736    1.000
    N4696    N        0.86974    0.08860    0.75923    1.000
    Si4697   Si       0.79314    0.14821    0.80160    1.000
    N4698    N        0.75417    0.24571    0.80317    1.000
    N4699    N        0.79010    0.18611    0.78355    1.000
    Si4700   Si       0.78158    0.21496    0.81629    1.000
    N4701    N        0.95929    0.15780    0.78149    1.000
    N4702    N        0.86725    0.23031    0.78271    1.000
    N4703    N        0.88505    0.15858    0.76356    1.000
    Si4704   Si       0.91697    0.14646    0.78947    1.000
    Si4705   Si       0.75075    0.06156    0.85782    1.000
    Si4706   Si       0.84330    0.12269    0.85459    1.000
    N4707    N        0.77851    0.08806    0.87475    1.000
    N4708    N        0.79776    0.01246    0.83759    1.000
    N4709    N        0.84934    0.09488    0.82454    1.000
    Si4710   Si       0.76598    0.12626    0.85701    1.000
    Si4711   Si       0.92612    0.07978    0.83868    1.000
    N4712    N        0.96352    0.05837    0.85046    1.000
    Si4713   Si       0.97051    0.02253    0.87484    1.000
    N4714    N        0.91834    0.10189    0.87800    1.000
    Si4715   Si       0.82214    0.18213    0.86505    1.000
    N4716    N        0.75713    0.20294    0.84994    1.000
    N4717    N        0.80547    0.14339    0.84615    1.000
    N4718    N        0.82193    0.21370    0.83594    1.000
    Si4719   Si       0.85724    0.23692    0.82302    1.000
    N4720    N        0.85973    0.16250    0.86413    1.000
    N4721    N        0.89189    0.22449    0.85003    1.000
    N4722    N        0.97389    0.14146    0.85838    1.000
    N4723    N        0.91839    0.16855    0.82629    1.000
    Si4724   Si       0.96135    0.16802    0.82487    1.000
    Si4725   Si       0.89552    0.18292    0.86065    1.000
    N4726    N        0.98031    0.20606    0.83106    1.000
    N4727    N        0.81903    0.03832    0.90100    1.000
    Si4728   Si       0.81069    0.08175    0.90204    1.000
    N4729    N        0.84878    0.10181    0.89333    1.000
    Si4730   Si       0.85177    0.02993    0.92531    1.000
    N4731    N        0.74919    0.02685    0.88435    1.000
    Si4732   Si       0.79000    0.01456    0.88144    1.000
    N4733    N        0.80002    0.10176    0.93933    1.000
    N4734    N        0.95388    0.01248    0.91300    1.000
    N4735    N        0.96776    0.12298    0.92419    1.000
    Si4736   Si       0.88904    0.09520    0.91087    1.000
    N4737    N        0.88863    0.05435    0.92412    1.000
    Si4738   Si       0.75848    0.18525    0.89073    1.000
    N4739    N        0.79894    0.18195    0.90272    1.000
    N4740    N        0.74234    0.14673    0.88563    1.000
    Si4741   Si       0.82579    0.25886    0.91879    1.000
    N4742    N        0.86444    0.24506    0.90798    1.000
    N4743    N        0.92001    0.17369    0.89501    1.000
    Si4744   Si       0.89974    0.24916    0.88349    1.000
    N4745    N        0.97390    0.18989    0.92714    1.000
    N4746    N        0.93697    0.24284    0.90625    1.000
    Si4747   Si       0.94304    0.13716    0.89169    1.000
    Si4748   Si       0.93394    0.20292    0.92402    1.000
    N4749    N        0.77478    0.04726    0.97557    1.000
    N4750    N        0.84230    0.03284    0.96702    1.000
    Si4751   Si       0.76279    0.08578    0.95673    1.000
    N4752    N        0.74577    0.11408    0.98900    1.000
    Si4753   Si       0.81864    0.13309    0.95854    1.000
    Si4754   Si       0.81046    0.03235    0.99701    1.000
    Si4755   Si       0.98072    0.08505    0.94302    1.000
    N4756    N        0.94319    0.06590    0.95811    1.000
    Si4757   Si       0.91795    0.09498    0.97895    1.000
    N4758    N        0.89915    0.11938    0.94699    1.000
    Si4759   Si       0.87777    0.03369    0.99023    1.000
    Si4760   Si       0.92440    0.03225    0.93826    1.000
    N4761    N        0.80597    0.23074    0.94538    1.000
    N4762    N        0.78737    0.16299    0.97205    1.000
    N4763    N        0.74387    0.22088    0.97714    1.000
    Si4764   Si       0.81151    0.18882    0.94341    1.000
    Si4765   Si       0.74347    0.15846    0.98335    1.000
    N4766    N        0.84692    0.16457    0.94957    1.000
    Si4767   Si       0.77496    0.25139    0.96909    1.000
    Si4768   Si       0.88821    0.15918    0.96309    1.000
    N4769    N        0.91189    0.19555    0.95990    1.000
    Si4770   Si       0.78244    0.27814    0.03880    1.000
    N4771    N        0.76536    0.37734    0.01162    1.000
    N4772    N        0.75531    0.30815    0.05227    1.000
    N4773    N        0.79670    0.27426    0.99788    1.000
    Si4774   Si       0.74388    0.34086    0.02144    1.000
    Si4775   Si       0.95602    0.28365    0.01708    1.000
    N4776    N        0.93545    0.32251    0.01712    1.000
    Si4777   Si       0.96843    0.35505    0.01590    1.000
    N4778    N        0.88545    0.36282    0.00336    1.000
    Si4779   Si       0.88964    0.26146    0.02231    1.000
    N4780    N        0.87240    0.29095    0.99645    1.000
    N4781    N        0.94840    0.38391    0.04184    1.000
    N4782    N        0.82142    0.50329    0.04943    1.000
    Si4783   Si       0.82195    0.47681    0.00938    1.000
    N4784    N        0.80314    0.44069    0.02271    1.000
    N4785    N        0.77651    0.49853    0.00527    1.000
    Si4786   Si       0.77712    0.41687    0.99694    1.000
    N4787    N        0.74071    0.44183    0.02779    1.000
    Si4788   Si       0.97052    0.50994    0.00711    1.000
    N4789    N        0.93159    0.50331    0.02453    1.000
    Si4790   Si       0.91090    0.39392    0.02047    1.000
    Si4791   Si       0.97841    0.41720    0.05537    1.000
    N4792    N        0.87054    0.47293    0.01552    1.000
    N4793    N        0.92754    0.42993    0.99791    1.000
    N4794    N        0.88223    0.40986    0.05027    1.000
    Si4795   Si       0.82126    0.32367    0.08696    1.000
    N4796    N        0.83097    0.36419    0.07666    1.000
    Si4797   Si       0.74855    0.31070    0.09658    1.000
    Si4798   Si       0.85225    0.26837    0.08357    1.000
    N4799    N        0.81791    0.28569    0.06434    1.000
    N4800    N        0.78311    0.33588    0.10580    1.000
    Si4801   Si       0.79411    0.37692    0.09979    1.000
    N4802    N        0.85693    0.30756    0.10875    1.000
    N4803    N        0.75946    0.27100    0.11193    1.000
    Si4804   Si       0.89879    0.30983    0.09130    1.000
    N4805    N        0.90305    0.34976    0.07810    1.000
    Si4806   Si       0.94426    0.36655    0.08328    1.000
    N4807    N        0.97587    0.33969    0.09816    1.000
    N4808    N        0.88950    0.28118    0.06098    1.000
    Si4809   Si       0.87109    0.37897    0.07746    1.000
    N4810    N        0.93178    0.29286    0.11486    1.000
    N4811    N        0.83554    0.44827    0.08625    1.000
    N4812    N        0.76806    0.40850    0.08559    1.000
    N4813    N        0.77551    0.47562    0.08093    1.000
    Si4814   Si       0.81821    0.48683    0.08856    1.000
    Si4815   Si       0.77390    0.44041    0.05569    1.000
    N4816    N        0.94152    0.39743    0.11406    1.000
    N4817    N        0.96873    0.45841    0.06734    1.000
    N4818    N        0.89671    0.47193    0.07589    1.000
    Si4819   Si       0.93517    0.48375    0.06335    1.000
    Si4820   Si       0.89285    0.50315    0.10558    1.000
    Si4821   Si       0.86520    0.45093    0.05422    1.000
    Si4822   Si       0.84566    0.30675    0.15078    1.000
    N4823    N        0.82042    0.27192    0.15342    1.000
    N4824    N        0.83034    0.34312    0.16748    1.000
    Si4825   Si       0.96752    0.31299    0.13104    1.000
    N4826    N        0.95268    0.32593    0.16976    1.000
    N4827    N        0.93184    0.25866    0.17089    1.000
    N4828    N        0.89979    0.37575    0.17027    1.000
    N4829    N        0.84145    0.45370    0.15586    1.000
    N4830    N        0.80840    0.39597    0.13530    1.000
    N4831    N        0.76943    0.45473    0.15065    1.000
    Si4832   Si       0.80519    0.47825    0.16150    1.000
    Si4833   Si       0.83775    0.42477    0.12372    1.000
    N4834    N        0.81233    0.50412    0.12720    1.000
    Si4835   Si       0.75400    0.47987    0.11624    1.000
    Si4836   Si       0.75120    0.42123    0.17096    1.000
    N4837    N        0.89313    0.49857    0.14841    1.000
    Si4838   Si       0.87908    0.46667    0.17302    1.000
    N4839    N        0.87394    0.40049    0.11472    1.000
    Si4840   Si       0.98280    0.41221    0.12312    1.000
    N4841    N        0.91010    0.43663    0.16755    1.000
    Si4842   Si       0.90873    0.40414    0.13917    1.000
    N4843    N        0.76133    0.27886    0.18777    1.000
    Si4844   Si       0.74301    0.36321    0.21788    1.000
    Si4845   Si       0.80921    0.37968    0.17616    1.000
    Si4846   Si       0.86805    0.35223    0.18724    1.000
    Si4847   Si       0.97538    0.35968    0.18489    1.000
    Si4848   Si       0.92228    0.29821    0.18585    1.000
    N4849    N        0.92641    0.29776    0.22895    1.000
    N4850    N        0.95093    0.38344    0.21524    1.000
    N4851    N        0.88294    0.31110    0.17369    1.000
    N4852    N        0.87563    0.34722    0.22955    1.000
    N4853    N        0.76906    0.38822    0.19253    1.000
    Si4854   Si       0.74556    0.48837    0.18378    1.000
    N4855    N        0.83948    0.39149    0.20302    1.000
    N4856    N        0.78798    0.50108    0.19464    1.000
    N4857    N        0.96458    0.49409    0.22501    1.000
    Si4858   Si       0.91397    0.40376    0.20010    1.000
    N4859    N        0.86240    0.48235    0.20913    1.000
    N4860    N        0.81752    0.31080    0.25970    1.000
    Si4861   Si       0.77549    0.30794    0.27323    1.000
    N4862    N        0.76337    0.26859    0.26140    1.000
    Si4863   Si       0.84775    0.33870    0.26216    1.000
    N4864    N        0.84371    0.37859    0.27894    1.000
    Si4865   Si       0.84300    0.27353    0.26441    1.000
    N4866    N        0.75487    0.33960    0.25328    1.000
    N4867    N        0.87841    0.30842    0.27725    1.000
    N4868    N        0.92916    0.35629    0.27589    1.000
    Si4869   Si       0.90862    0.32924    0.25210    1.000
    Si4870   Si       0.92138    0.25799    0.25109    1.000
    N4871    N        0.83867    0.44035    0.25869    1.000
    Si4872   Si       0.85242    0.39983    0.24281    1.000
    N4873    N        0.89281    0.41761    0.23355    1.000
    Si4874   Si       0.95192    0.38829    0.25841    1.000
    Si4875   Si       0.87562    0.45777    0.24303    1.000
    N4876    N        0.90566    0.47987    0.26210    1.000
    N4877    N        0.96101    0.43095    0.25991    1.000
    Si4878   Si       0.94739    0.47278    0.26143    1.000
    N4879    N        0.77316    0.31176    0.31781    1.000
    N4880    N        0.80958    0.37196    0.33531    1.000
    Si4881   Si       0.83133    0.27164    0.34278    1.000
    N4882    N        0.82162    0.25889    0.30156    1.000
    N4883    N        0.98731    0.26837    0.33576    1.000
    N4884    N        0.88781    0.37303    0.33836    1.000
    N4885    N        0.92171    0.31608    0.33382    1.000
    Si4886   Si       0.92284    0.35744    0.31942    1.000
    Si4887   Si       0.89816    0.28976    0.30905    1.000
    N4888    N        0.87594    0.26897    0.33983    1.000
    N4889    N        0.92788    0.26215    0.29380    1.000
    N4890    N        0.95396    0.38511    0.33349    1.000
    Si4891   Si       0.84939    0.38453    0.32086    1.000
    N4892    N        0.78870    0.43452    0.30867    1.000
    Si4893   Si       0.75303    0.45729    0.30156    1.000
    N4894    N        0.85377    0.42609    0.32791    1.000
    Si4895   Si       0.77902    0.40338    0.33521    1.000
    N4896    N        0.84545    0.48925    0.30132    1.000
    N4897    N        0.76359    0.50004    0.30832    1.000
    Si4898   Si       0.82914    0.44949    0.29935    1.000
    N4899    N        0.96553    0.49314    0.29643    1.000
    N4900    N        0.90881    0.50214    0.33324    1.000
    N4901    N        0.81781    0.30933    0.36818    1.000
    N4902    N        0.75938    0.35119    0.37893    1.000
    Si4903   Si       0.83886    0.31815    0.40494    1.000
    Si4904   Si       0.78935    0.33626    0.34901    1.000
    Si4905   Si       0.91019    0.29827    0.37594    1.000
    N4906    N        0.95414    0.30617    0.38730    1.000
    N4907    N        0.88006    0.32575    0.38989    1.000
    Si4908   Si       0.88911    0.36927    0.38260    1.000
    N4909    N        0.90697    0.26437    0.39993    1.000
    N4910    N        0.92723    0.38157    0.39583    1.000
    Si4911   Si       0.98832    0.30571    0.35850    1.000
    Si4912   Si       0.75941    0.38917    0.40069    1.000
    Si4913   Si       0.79492    0.45784    0.39532    1.000
    N4914    N        0.83676    0.46367    0.38236    1.000
    N4915    N        0.78012    0.41955    0.37722    1.000
    N4916    N        0.77000    0.49152    0.38265    1.000
    Si4917   Si       0.85110    0.50379    0.38594    1.000
    N4918    N        0.86243    0.39886    0.39675    1.000
    Si4919   Si       0.86709    0.43310    0.37012    1.000
    Si4920   Si       0.74397    0.49599    0.34776    1.000
    N4921    N        0.91225    0.44024    0.36673    1.000
    N4922    N        0.97839    0.42637    0.38765    1.000
    N4923    N        0.89092    0.49579    0.40232    1.000
    Si4924   Si       0.91774    0.48346    0.37119    1.000
    Si4925   Si       0.94420    0.40924    0.36810    1.000
    N4926    N        0.95857    0.49904    0.37262    1.000
    N4927    N        0.82736    0.35448    0.42783    1.000
    N4928    N        0.84408    0.28139    0.43064    1.000
    Si4929   Si       0.79536    0.35449    0.45672    1.000
    N4930    N        0.76154    0.37551    0.44149    1.000
    N4931    N        0.77269    0.25524    0.42322    1.000
    N4932    N        0.91255    0.30208    0.45217    1.000
    Si4933   Si       0.95077    0.31160    0.43005    1.000
    Si4934   Si       0.88616    0.27213    0.43833    1.000
    N4935    N        0.96016    0.35065    0.44547    1.000
    N4936    N        0.89227    0.36873    0.45339    1.000
    N4937    N        0.98148    0.28487    0.44463    1.000
    Si4938   Si       0.93129    0.38260    0.43899    1.000
    Si4939   Si       0.85528    0.38905    0.43771    1.000
    N4940    N        0.78801    0.45617    0.43740    1.000
    N4941    N        0.84603    0.41819    0.47020    1.000
    N4942    N        0.98721    0.47500    0.44104    1.000
    N4943    N        0.94324    0.42346    0.44836    1.000
    Si4944   Si       0.98251    0.43177    0.43111    1.000
    Si4945   Si       0.90393    0.50608    0.44117    1.000
    Si4946   Si       0.97561    0.50563    0.41262    1.000
    Si4947   Si       0.75917    0.30019    0.49380    1.000
    N4948    N        0.85294    0.32096    0.49171    1.000
    N4949    N        0.80051    0.37127    0.49665    1.000
    Si4950   Si       0.83372    0.35114    0.51809    1.000
    Si4951   Si       0.82801    0.29078    0.47191    1.000
    N4952    N        0.86492    0.37834    0.52494    1.000
    N4953    N        0.78951    0.31254    0.46559    1.000
    Si4954   Si       0.97451    0.26291    0.48079    1.000
    N4955    N        0.92207    0.34348    0.50899    1.000
    Si4956   Si       0.89279    0.33428    0.47792    1.000
    N4957    N        0.97183    0.29073    0.51285    1.000
    Si4958   Si       0.96302    0.33226    0.51758    1.000
    N4959    N        0.75133    0.49567    0.49370    1.000
    N4960    N        0.77929    0.44152    0.50010    1.000
    N4961    N        0.83392    0.48976    0.47972    1.000
    Si4962   Si       0.77888    0.40167    0.52034    1.000
    Si4963   Si       0.81643    0.45104    0.47004    1.000
    Si4964   Si       0.86811    0.48639    0.50540    1.000
    Si4965   Si       0.75457    0.46139    0.46705    1.000
    N4966    N        0.91621    0.41885    0.50896    1.000
    N4967    N        0.96032    0.47086    0.50407    1.000
    Si4968   Si       0.87162    0.41737    0.50686    1.000
    Si4969   Si       0.93127    0.44843    0.48177    1.000
    N4970    N        0.89859    0.47563    0.47185    1.000
    Si4971   Si       0.77962    0.31282    0.56198    1.000
    N4972    N        0.81131    0.34031    0.55410    1.000
    N4973    N        0.78000    0.28585    0.52963    1.000
    N4974    N        0.74143    0.33372    0.56837    1.000
    N4975    N        0.96948    0.32965    0.56156    1.000
    Si4976   Si       0.89807    0.35426    0.54286    1.000
    N4977    N        0.88384    0.32494    0.56960    1.000
    N4978    N        0.92132    0.37966    0.56945    1.000
    Si4979   Si       0.96373    0.36771    0.58281    1.000
    Si4980   Si       0.82730    0.44285    0.55935    1.000
    N4981    N        0.79351    0.47127    0.56021    1.000
    N4982    N        0.80572    0.40695    0.55366    1.000
    Si4983   Si       0.76221    0.46879    0.53048    1.000
    N4984    N        0.85802    0.45156    0.53007    1.000
    N4985    N        0.97916    0.40261    0.56099    1.000
    Si4986   Si       0.95839    0.48116    0.54609    1.000
    N4987    N        0.93002    0.45225    0.56557    1.000
    Si4988   Si       0.93637    0.41400    0.54689    1.000
    N4989    N        0.78392    0.36480    0.61417    1.000
    N4990    N        0.78545    0.29264    0.60021    1.000
    N4991    N        0.85606    0.28150    0.62127    1.000
    Si4992   Si       0.82323    0.27045    0.59748    1.000
    Si4993   Si       0.74939    0.33446    0.61438    1.000
    Si4994   Si       0.76387    0.26119    0.62256    1.000
    N4995    N        0.84930    0.38486    0.60010    1.000
    Si4996   Si       0.81239    0.37329    0.58187    1.000
    Si4997   Si       0.88735    0.31006    0.60934    1.000
    Si4998   Si       0.96380    0.30704    0.62065    1.000
    N4999    N        0.96744    0.35015    0.62304    1.000
    N5000    N        0.92465    0.28763    0.60887    1.000
    N5001    N        0.89523    0.34489    0.63168    1.000
    Si5002   Si       0.89525    0.38049    0.60406    1.000
    N5003    N        0.83714    0.44871    0.60152    1.000
    Si5004   Si       0.85027    0.41890    0.63032    1.000
    Si5005   Si       0.80420    0.47951    0.60522    1.000
    N5006    N        0.76634    0.43736    0.62123    1.000
    Si5007   Si       0.77873    0.39896    0.64433    1.000
    N5008    N        0.90957    0.48903    0.62036    1.000
    N5009    N        0.89850    0.41726    0.62834    1.000
    N5010    N        0.96429    0.44633    0.62407    1.000
    Si5011   Si       0.92378    0.45000    0.60894    1.000
    N5012    N        0.75314    0.32744    0.69019    1.000
    N5013    N        0.76660    0.25981    0.66630    1.000
    Si5014   Si       0.86407    0.26733    0.66193    1.000
    N5015    N        0.86737    0.30640    0.68458    1.000
    Si5016   Si       0.89119    0.34258    0.67539    1.000
    N5017    N        0.96315    0.29004    0.66126    1.000
    Si5018   Si       0.96152    0.31278    0.69853    1.000
    Si5019   Si       0.83489    0.38590    0.69509    1.000
    N5020    N        0.82101    0.40357    0.65764    1.000
    N5021    N        0.75772    0.39645    0.68452    1.000
    Si5022   Si       0.83361    0.48110    0.67801    1.000
    Si5023   Si       0.77216    0.49309    0.68633    1.000
    N5024    N        0.74110    0.46408    0.67823    1.000
    N5025    N        0.80095    0.49531    0.64814    1.000
    N5026    N        0.87870    0.38441    0.68555    1.000
    N5027    N        0.98348    0.48320    0.67998    1.000
    Si5028   Si       0.89687    0.42161    0.67152    1.000
    N5029    N        0.86731    0.45514    0.66888    1.000
    N5030    N        0.93506    0.43552    0.68625    1.000
    Si5031   Si       0.89261    0.49176    0.65935    1.000
    Si5032   Si       0.97153    0.44318    0.66578    1.000
    Si5033   Si       0.78245    0.33005    0.72181    1.000
    Si5034   Si       0.84273    0.31047    0.72202    1.000
    N5035    N        0.80177    0.28881    0.72312    1.000
    N5036    N        0.82255    0.34823    0.71332    1.000
    N5037    N        0.86998    0.29671    0.75544    1.000
    Si5038   Si       0.92841    0.35916    0.74159    1.000
    N5039    N        0.97454    0.28757    0.73177    1.000
    N5040    N        0.92626    0.33926    0.70314    1.000
    N5041    N        0.88663    0.36354    0.75788    1.000
    Si5042   Si       0.80706    0.44689    0.74022    1.000
    N5043    N        0.83539    0.41445    0.72681    1.000
    N5044    N        0.76576    0.43103    0.74526    1.000
    N5045    N        0.80503    0.47458    0.70836    1.000
    Si5046   Si       0.74165    0.43012    0.70671    1.000
    Si5047   Si       0.93801    0.43106    0.73001    1.000
    N5048    N        0.94515    0.47098    0.74274    1.000
    N5049    N        0.95645    0.39365    0.74147    1.000
    N5050    N        0.89942    0.43366    0.75310    1.000
    Si5051   Si       0.86841    0.40277    0.75424    1.000
    Si5052   Si       0.95297    0.49712    0.70970    1.000
    Si5053   Si       0.78940    0.34180    0.80071    1.000
    N5054    N        0.83189    0.34194    0.79607    1.000
    N5055    N        0.76940    0.33992    0.76067    1.000
    Si5056   Si       0.87087    0.33012    0.78217    1.000
    N5057    N        0.94505    0.33600    0.77517    1.000
    Si5058   Si       0.96020    0.29446    0.77236    1.000
    N5059    N        0.92924    0.26690    0.77925    1.000
    Si5060   Si       0.93180    0.34748    0.81416    1.000
    Si5061   Si       0.89134    0.25799    0.75892    1.000
    Si5062   Si       0.80302    0.50362    0.78970    1.000
    Si5063   Si       0.85052    0.45137    0.80481    1.000
    N5064    N        0.85205    0.40910    0.79334    1.000
    Si5065   Si       0.75155    0.44685    0.78355    1.000
    N5066    N        0.76276    0.48806    0.77717    1.000
    N5067    N        0.82382    0.46847    0.77562    1.000
    N5068    N        0.95372    0.45515    0.80592    1.000
    Si5069   Si       0.91948    0.46006    0.77880    1.000
    N5070    N        0.88968    0.46902    0.80992    1.000
    Si5071   Si       0.81047    0.29145    0.85269    1.000
    N5072    N        0.84576    0.27705    0.83200    1.000
    N5073    N        0.77943    0.30773    0.82787    1.000
    N5074    N        0.79259    0.37977    0.82570    1.000
    Si5075   Si       0.74436    0.28453    0.82401    1.000
    Si5076   Si       0.83339    0.38075    0.81758    1.000
    N5077    N        0.83452    0.32363    0.87506    1.000
    N5078    N        0.98567    0.26709    0.86632    1.000
    Si5079   Si       0.87070    0.30980    0.85294    1.000
    N5080    N        0.95354    0.32673    0.84634    1.000
    N5081    N        0.89083    0.33196    0.82098    1.000
    N5082    N        0.90269    0.28986    0.87350    1.000
    Si5083   Si       0.83054    0.49368    0.86114    1.000
    N5084    N        0.83239    0.45231    0.84460    1.000
    Si5085   Si       0.76490    0.39984    0.85337    1.000
    N5086    N        0.85311    0.39175    0.85542    1.000
    N5087    N        0.74853    0.43075    0.82642    1.000
    Si5088   Si       0.82809    0.42159    0.87675    1.000
    Si5089   Si       0.96100    0.41920    0.82762    1.000
    Si5090   Si       0.89706    0.39454    0.86113    1.000
    Si5091   Si       0.96617    0.49672    0.82023    1.000
    N5092    N        0.87222    0.50513    0.86169    1.000
    N5093    N        0.92864    0.38992    0.82797    1.000
    Si5094   Si       0.90226    0.47364    0.85062    1.000
    N5095    N        0.90522    0.43622    0.87537    1.000
    N5096    N        0.93779    0.49956    0.85381    1.000
    Si5097   Si       0.82530    0.33418    0.91712    1.000
    N5098    N        0.78516    0.34805    0.92479    1.000
    Si5099   Si       0.74708    0.35799    0.90730    1.000
    N5100    N        0.79783    0.26583    0.88477    1.000
    Si5101   Si       0.75579    0.25754    0.90057    1.000
    N5102    N        0.98376    0.37585    0.90569    1.000
    Si5103   Si       0.97001    0.26855    0.90682    1.000
    N5104    N        0.96266    0.31395    0.91227    1.000
    Si5105   Si       0.89470    0.36164    0.92680    1.000
    N5106    N        0.90401    0.35807    0.88518    1.000
    Si5107   Si       0.93033    0.32279    0.88350    1.000
    Si5108   Si       0.75508    0.42543    0.92286    1.000
    N5109    N        0.84769    0.43267    0.91351    1.000
    N5110    N        0.80415    0.49333    0.89571    1.000
    N5111    N        0.78467    0.41550    0.88843    1.000
    N5112    N        0.91682    0.39863    0.93169    1.000
    Si5113   Si       0.89472    0.43480    0.91815    1.000
    Si5114   Si       0.96007    0.38900    0.93861    1.000
    Si5115   Si       0.78238    0.35575    0.96898    1.000
    Si5116   Si       0.84650    0.37427    0.97902    1.000
    Si5117   Si       0.83219    0.29824    0.98389    1.000
    N5118    N        0.74671    0.32946    0.97842    1.000
    N5119    N        0.82055    0.33851    0.98912    1.000
    N5120    N        0.82955    0.29625    0.93963    1.000
    N5121    N        0.74940    0.27367    0.93885    1.000
    N5122    N        0.85356    0.36106    0.93649    1.000
    N5123    N        0.97471    0.29429    0.97834    1.000
    N5124    N        0.96580    0.36156    0.97257    1.000
    Si5125   Si       0.95407    0.32327    0.95302    1.000
    N5126    N        0.91109    0.32962    0.95084    1.000
    Si5127   Si       0.90050    0.32285    0.99494    1.000
    N5128    N        0.82159    0.47077    0.96647    1.000
    N5129    N        0.80404    0.39762    0.96791    1.000
    Si5130   Si       0.82819    0.42970    0.95129    1.000
    N5131    N        0.75964    0.43985    0.96524    1.000
    Si5132   Si       0.81612    0.50225    0.93742    1.000
    Si5133   Si       0.74412    0.46978    0.99200    1.000
    N5134    N        0.86093    0.41769    0.97741    1.000
    N5135    N        0.98048    0.42661    0.94585    1.000
    N5136    N        0.89707    0.46803    0.94640    1.000
    Si5137   Si       0.96889    0.43966    0.98487    1.000
    Si5138   Si       0.88984    0.44828    0.98427    1.000
    N5139    N        0.98598    0.47854    0.98304    1.000
    Si5140   Si       0.82576    0.54774    0.03900    1.000
    N5141    N        0.74961    0.56185    0.00288    1.000
    Si5142   Si       0.84670    0.62655    0.03351    1.000
    Si5143   Si       0.77348    0.51003    0.05001    1.000
    N5144    N        0.89064    0.61961    0.02543    1.000
    N5145    N        0.87154    0.54295    0.03625    1.000
    Si5146   Si       0.89063    0.51177    0.01515    1.000
    N5147    N        0.75003    0.63510    0.02212    1.000
    Si5148   Si       0.75501    0.68010    0.02878    1.000
    N5149    N        0.81210    0.74747    0.04977    1.000
    N5150    N        0.78454    0.69408    0.99710    1.000
    N5151    N        0.82951    0.63870    0.99616    1.000
    N5152    N        0.85804    0.70822    0.99959    1.000
    N5153    N        0.92434    0.69199    0.02661    1.000
    N5154    N        0.98222    0.72830    0.01140    1.000
    Si5155   Si       0.88138    0.69435    0.03545    1.000
    N5156    N        0.96664    0.64847    0.99833    1.000
    Si5157   Si       0.93919    0.73205    0.01580    1.000
    Si5158   Si       0.96152    0.67270    0.03747    1.000
    N5159    N        0.94018    0.75518    0.05268    1.000
    N5160    N        0.77285    0.61668    0.08331    1.000
    Si5161   Si       0.80162    0.58561    0.08556    1.000
    N5162    N        0.78762    0.55013    0.06232    1.000
    N5163    N        0.83632    0.59276    0.05868    1.000
    N5164    N        0.86525    0.53726    0.10252    1.000
    N5165    N        0.91386    0.58263    0.07704    1.000
    N5166    N        0.93252    0.51729    0.09232    1.000
    N5167    N        0.97827    0.57185    0.09358    1.000
    Si5168   Si       0.93835    0.55816    0.10188    1.000
    Si5169   Si       0.87245    0.56804    0.07043    1.000
    Si5170   Si       0.91013    0.62395    0.06390    1.000
    Si5171   Si       0.98114    0.60919    0.06915    1.000
    Si5172   Si       0.78275    0.72945    0.07856    1.000
    Si5173   Si       0.85116    0.66370    0.09756    1.000
    N5174    N        0.77453    0.68649    0.06843    1.000
    Si5175   Si       0.77559    0.65766    0.10141    1.000
    N5176    N        0.85303    0.66528    0.05363    1.000
    N5177    N        0.88061    0.73043    0.06283    1.000
    Si5178   Si       0.91600    0.74076    0.08602    1.000
    N5179    N        0.89282    0.64446    0.09797    1.000
    N5180    N        0.94947    0.63960    0.06286    1.000
    N5181    N        0.93118    0.70571    0.10667    1.000
    N5182    N        0.81477    0.57787    0.12547    1.000
    Si5183   Si       0.83476    0.53925    0.13231    1.000
    Si5184   Si       0.82670    0.58710    0.16752    1.000
    N5185    N        0.85326    0.54914    0.16928    1.000
    N5186    N        0.85257    0.62363    0.17023    1.000
    N5187    N        0.92967    0.55907    0.14563    1.000
    N5188    N        0.98002    0.61613    0.15990    1.000
    Si5189   Si       0.89749    0.53887    0.16360    1.000
    N5190    N        0.78247    0.73596    0.12025    1.000
    Si5191   Si       0.82287    0.65583    0.16265    1.000
    N5192    N        0.81510    0.65580    0.11945    1.000
    Si5193   Si       0.85930    0.71721    0.15904    1.000
    N5194    N        0.74279    0.66388    0.12776    1.000
    N5195    N        0.98734    0.68239    0.13473    1.000
    N5196    N        0.95865    0.72704    0.17124    1.000
    N5197    N        0.92078    0.65501    0.15844    1.000
    N5198    N        0.86625    0.69526    0.12428    1.000
    Si5199   Si       0.96403    0.65566    0.16308    1.000
    Si5200   Si       0.96596    0.71868    0.12966    1.000
    Si5201   Si       0.90598    0.67559    0.12509    1.000
    N5202    N        0.79448    0.57462    0.19278    1.000
    Si5203   Si       0.76822    0.60759    0.20437    1.000
    Si5204   Si       0.79165    0.53951    0.21838    1.000
    Si5205   Si       0.85871    0.52774    0.20690    1.000
    N5206    N        0.97381    0.55643    0.19940    1.000
    N5207    N        0.92226    0.60179    0.20062    1.000
    N5208    N        0.90480    0.53341    0.20558    1.000
    Si5209   Si       0.94512    0.53152    0.22122    1.000
    Si5210   Si       0.95192    0.58503    0.17323    1.000
    Si5211   Si       0.89377    0.63219    0.18585    1.000
    N5212    N        0.83339    0.69267    0.18305    1.000
    Si5213   Si       0.85038    0.68566    0.22278    1.000
    N5214    N        0.78592    0.64168    0.18140    1.000
    Si5215   Si       0.74600    0.65933    0.17268    1.000
    N5216    N        0.87884    0.65225    0.22290    1.000
    Si5217   Si       0.92852    0.73834    0.20074    1.000
    N5218    N        0.89366    0.72162    0.18326    1.000
    N5219    N        0.98034    0.66951    0.20028    1.000
    N5220    N        0.76265    0.53602    0.25031    1.000
    N5221    N        0.84461    0.60871    0.26626    1.000
    N5222    N        0.77385    0.60852    0.24588    1.000
    Si5223   Si       0.84049    0.56498    0.27223    1.000
    N5224    N        0.83214    0.54436    0.23490    1.000
    Si5225   Si       0.77478    0.53851    0.29066    1.000
    N5226    N        0.91458    0.61178    0.27439    1.000
    N5227    N        0.93862    0.55746    0.25552    1.000
    Si5228   Si       0.93811    0.59851    0.23917    1.000
    N5229    N        0.97891    0.61226    0.23694    1.000
    Si5230   Si       0.80529    0.62962    0.26646    1.000
    N5231    N        0.75395    0.69534    0.26826    1.000
    N5232    N        0.81734    0.66739    0.24623    1.000
    Si5233   Si       0.77807    0.72973    0.27435    1.000
    Si5234   Si       0.83785    0.75128    0.25805    1.000
    N5235    N        0.86557    0.71804    0.24676    1.000
    N5236    N        0.79559    0.75646    0.24049    1.000
    Si5237   Si       0.87778    0.63704    0.26382    1.000
    Si5238   Si       0.90480    0.70878    0.26846    1.000
    N5239    N        0.93773    0.71675    0.23936    1.000
    N5240    N        0.89462    0.67056    0.28490    1.000
    Si5241   Si       0.97779    0.71257    0.25904    1.000
    N5242    N        0.81193    0.55549    0.30145    1.000
    Si5243   Si       0.82672    0.56530    0.34069    1.000
    N5244    N        0.84243    0.60320    0.33589    1.000
    N5245    N        0.74768    0.56902    0.30292    1.000
    Si5246   Si       0.87300    0.51775    0.31955    1.000
    Si5247   Si       0.95040    0.51669    0.33017    1.000
    N5248    N        0.94947    0.55928    0.32175    1.000
    Si5249   Si       0.97633    0.59291    0.33391    1.000
    N5250    N        0.96806    0.62974    0.31347    1.000
    N5251    N        0.87851    0.55232    0.29099    1.000
    Si5252   Si       0.91852    0.57122    0.29201    1.000
    Si5253   Si       0.81845    0.63944    0.33815    1.000
    N5254    N        0.79036    0.64414    0.30430    1.000
    Si5255   Si       0.83258    0.71728    0.33173    1.000
    Si5256   Si       0.75292    0.66432    0.30159    1.000
    N5257    N        0.84213    0.67663    0.34170    1.000
    N5258    N        0.81879    0.72714    0.29108    1.000
    N5259    N        0.86370    0.74268    0.34693    1.000
    Si5260   Si       0.92796    0.64963    0.30676    1.000
    Si5261   Si       0.98498    0.66994    0.31760    1.000
    N5262    N        0.94979    0.69033    0.30361    1.000
    Si5263   Si       0.94668    0.73254    0.31487    1.000
    N5264    N        0.90985    0.74317    0.29524    1.000
    N5265    N        0.91270    0.64571    0.34929    1.000
    N5266    N        0.98286    0.74347    0.29004    1.000
    Si5267   Si       0.77228    0.59734    0.38769    1.000
    N5268    N        0.79147    0.56212    0.36694    1.000
    Si5269   Si       0.78295    0.53280    0.39914    1.000
    N5270    N        0.85192    0.53289    0.35408    1.000
    N5271    N        0.79280    0.63185    0.37290    1.000
    N5272    N        0.96530    0.60480    0.37486    1.000
    Si5273   Si       0.98309    0.57884    0.40422    1.000
    N5274    N        0.80031    0.72958    0.35859    1.000
    Si5275   Si       0.80930    0.72423    0.40025    1.000
    N5276    N        0.85784    0.64882    0.39990    1.000
    N5277    N        0.97526    0.67765    0.36283    1.000
    Si5278   Si       0.94785    0.64450    0.37613    1.000
    Si5279   Si       0.88043    0.73819    0.38658    1.000
    Si5280   Si       0.96654    0.71811    0.37891    1.000
    N5281    N        0.94953    0.74903    0.35555    1.000
    N5282    N        0.90084    0.69881    0.38441    1.000
    Si5283   Si       0.87766    0.66535    0.36481    1.000
    N5284    N        0.76526    0.56864    0.42238    1.000
    N5285    N        0.82793    0.59886    0.42620    1.000
    Si5286   Si       0.79194    0.58857    0.45302    1.000
    Si5287   Si       0.83410    0.52418    0.45631    1.000
    N5288    N        0.82105    0.52012    0.41518    1.000
    N5289    N        0.77396    0.63110    0.43407    1.000
    Si5290   Si       0.86167    0.62306    0.43582    1.000
    N5291    N        0.96219    0.58689    0.44064    1.000
    Si5292   Si       0.93948    0.62303    0.45176    1.000
    N5293    N        0.89845    0.60613    0.45009    1.000
    N5294    N        0.94283    0.52127    0.43725    1.000
    N5295    N        0.87596    0.53748    0.45469    1.000
    Si5296   Si       0.84753    0.69248    0.44596    1.000
    Si5297   Si       0.75295    0.74472    0.44581    1.000
    Si5298   Si       0.76673    0.67377    0.44782    1.000
    N5299    N        0.80193    0.68580    0.42178    1.000
    N5300    N        0.85105    0.72644    0.41581    1.000
    N5301    N        0.78606    0.75428    0.41682    1.000
    Si5302   Si       0.80967    0.64245    0.41260    1.000
    N5303    N        0.93667    0.65085    0.41903    1.000
    N5304    N        0.95353    0.71917    0.42000    1.000
    Si5305   Si       0.98174    0.74574    0.44149    1.000
    N5306    N        0.89032    0.68855    0.45480    1.000
    Si5307   Si       0.91933    0.69094    0.42246    1.000
    N5308    N        0.79041    0.60943    0.49490    1.000
    Si5309   Si       0.81803    0.57750    0.51021    1.000
    N5310    N        0.80746    0.55282    0.47493    1.000
    Si5311   Si       0.74732    0.59990    0.50550    1.000
    N5312    N        0.85788    0.59466    0.50088    1.000
    N5313    N        0.92314    0.56061    0.49649    1.000
    Si5314   Si       0.88740    0.57305    0.47529    1.000
    Si5315   Si       0.95289    0.55302    0.46505    1.000
    Si5316   Si       0.86816    0.62783    0.52465    1.000
    Si5317   Si       0.85582    0.75076    0.48951    1.000
    N5318    N        0.84479    0.71011    0.49371    1.000
    Si5319   Si       0.76995    0.71452    0.50945    1.000
    Si5320   Si       0.81214    0.64774    0.49392    1.000
    N5321    N        0.78245    0.67881    0.48744    1.000
    N5322    N        0.77189    0.74890    0.48409    1.000
    N5323    N        0.83908    0.65215    0.45965    1.000
    N5324    N        0.93065    0.70836    0.51022    1.000
    Si5325   Si       0.94112    0.66333    0.51540    1.000
    N5326    N        0.89959    0.65328    0.51223    1.000
    N5327    N        0.96087    0.63895    0.48577    1.000
    Si5328   Si       0.88706    0.69243    0.49910    1.000
    Si5329   Si       0.93080    0.75034    0.49565    1.000
    N5330    N        0.82366    0.56051    0.54804    1.000
    Si5331   Si       0.85118    0.53054    0.56400    1.000
    Si5332   Si       0.75638    0.62415    0.57755    1.000
    N5333    N        0.79862    0.61694    0.57821    1.000
    N5334    N        0.87609    0.52090    0.53045    1.000
    N5335    N        0.86535    0.61536    0.56662    1.000
    N5336    N        0.92790    0.58617    0.55963    1.000
    Si5337   Si       0.96442    0.60923    0.56465    1.000
    Si5338   Si       0.91515    0.54646    0.53761    1.000
    N5339    N        0.94095    0.51904    0.55922    1.000
    N5340    N        0.88619    0.54600    0.58559    1.000
    Si5341   Si       0.83303    0.69793    0.54098    1.000
    N5342    N        0.79551    0.71735    0.54257    1.000
    Si5343   Si       0.78821    0.75010    0.57053    1.000
    N5344    N        0.83365    0.65458    0.53111    1.000
    Si5345   Si       0.83416    0.64337    0.57433    1.000
    N5346    N        0.74034    0.66496    0.56755    1.000
    N5347    N        0.83357    0.68468    0.58624    1.000
    Si5348   Si       0.91567    0.72998    0.55232    1.000
    N5349    N        0.87678    0.70813    0.54661    1.000
    N5350    N        0.95517    0.64984    0.55406    1.000
    N5351    N        0.94912    0.71989    0.57903    1.000
    N5352    N        0.76972    0.54907    0.59655    1.000
    N5353    N        0.82613    0.57317    0.62609    1.000
    Si5354   Si       0.82673    0.53103    0.63814    1.000
    Si5355   Si       0.74485    0.56792    0.62768    1.000
    N5356    N        0.74682    0.60901    0.61553    1.000
    Si5357   Si       0.80359    0.57329    0.58705    1.000
    N5358    N        0.83017    0.51364    0.59698    1.000
    N5359    N        0.90697    0.61166    0.62205    1.000
    N5360    N        0.94286    0.54880    0.62528    1.000
    Si5361   Si       0.92240    0.52415    0.59739    1.000
    N5362    N        0.98389    0.60337    0.60564    1.000
    Si5363   Si       0.89569    0.58943    0.58687    1.000
    Si5364   Si       0.98615    0.56001    0.61465    1.000
    N5365    N        0.84335    0.64027    0.62864    1.000
    N5366    N        0.76850    0.66856    0.62486    1.000
    N5367    N        0.76140    0.73633    0.60204    1.000
    Si5368   Si       0.81432    0.67633    0.62631    1.000
    Si5369   Si       0.74386    0.69517    0.60059    1.000
    N5370    N        0.86876    0.69718    0.63983    1.000
    N5371    N        0.95856    0.73247    0.64356    1.000
    Si5372   Si       0.94796    0.67603    0.58742    1.000
    N5373    N        0.89373    0.74454    0.58976    1.000
    Si5374   Si       0.88684    0.65292    0.63138    1.000
    N5375    N        0.97630    0.66970    0.62000    1.000
    N5376    N        0.90631    0.67218    0.59808    1.000
    Si5377   Si       0.93370    0.74963    0.60933    1.000
    Si5378   Si       0.87472    0.70405    0.59450    1.000
    N5379    N        0.75645    0.58725    0.67319    1.000
    N5380    N        0.82221    0.61156    0.68950    1.000
    N5381    N        0.85835    0.51895    0.66742    1.000
    Si5382   Si       0.84045    0.60367    0.65139    1.000
    Si5383   Si       0.78067    0.60900    0.70108    1.000
    N5384    N        0.87654    0.58546    0.67474    1.000
    Si5385   Si       0.95513    0.54635    0.67154    1.000
    N5386    N        0.93917    0.58347    0.68768    1.000
    Si5387   Si       0.91379    0.60774    0.66362    1.000
    N5388    N        0.92091    0.51613    0.68559    1.000
    Si5389   Si       0.88436    0.54581    0.69433    1.000
    N5390    N        0.84913    0.75441    0.67439    1.000
    Si5391   Si       0.85057    0.71191    0.67384    1.000
    N5392    N        0.81102    0.69506    0.66660    1.000
    N5393    N        0.76088    0.64829    0.69041    1.000
    Si5394   Si       0.74923    0.63657    0.64863    1.000
    Si5395   Si       0.78187    0.68478    0.69657    1.000
    N5396    N        0.90822    0.65043    0.67027    1.000
    Si5397   Si       0.98883    0.70226    0.64548    1.000
    N5398    N        0.91603    0.74882    0.70397    1.000
    N5399    N        0.78329    0.59404    0.74136    1.000
    N5400    N        0.75621    0.52295    0.71321    1.000
    Si5401   Si       0.85632    0.59980    0.71336    1.000
    N5402    N        0.86871    0.56017    0.73231    1.000
    N5403    N        0.97006    0.53587    0.71966    1.000
    Si5404   Si       0.95830    0.58965    0.72561    1.000
    N5405    N        0.88235    0.63045    0.72779    1.000
    N5406    N        0.92753    0.58520    0.75703    1.000
    Si5407   Si       0.99076    0.53971    0.75772    1.000
    N5408    N        0.80325    0.68042    0.73521    1.000
    Si5409   Si       0.84310    0.69510    0.74620    1.000
    N5410    N        0.75085    0.71376    0.70399    1.000
    N5411    N        0.86654    0.69615    0.71036    1.000
    N5412    N        0.83497    0.73562    0.75953    1.000
    N5413    N        0.98673    0.75033    0.70610    1.000
    N5414    N        0.96643    0.63161    0.72101    1.000
    N5415    N        0.92917    0.68642    0.72918    1.000
    N5416    N        0.98689    0.69570    0.75090    1.000
    Si5417   Si       0.89877    0.66625    0.70847    1.000
    Si5418   Si       0.92575    0.72951    0.74255    1.000
    Si5419   Si       0.95851    0.66231    0.75225    1.000
    Si5420   Si       0.78461    0.57173    0.77774    1.000
    N5421    N        0.81789    0.54266    0.77414    1.000
    Si5422   Si       0.85839    0.56160    0.77570    1.000
    N5423    N        0.74606    0.54972    0.78028    1.000
    N5424    N        0.85842    0.60569    0.78395    1.000
    Si5425   Si       0.89765    0.61660    0.76491    1.000
    N5426    N        0.88961    0.55124    0.80392    1.000
    Si5427   Si       0.93285    0.55964    0.79116    1.000
    N5428    N        0.96228    0.52980    0.79044    1.000
    N5429    N        0.95330    0.58997    0.81689    1.000
    Si5430   Si       0.95404    0.63323    0.80859    1.000
    Si5431   Si       0.83641    0.63967    0.80368    1.000
    Si5432   Si       0.80356    0.74991    0.78799    1.000
    N5433    N        0.85715    0.67327    0.78112    1.000
    Si5434   Si       0.77662    0.68001    0.76993    1.000
    N5435    N        0.79332    0.64957    0.79674    1.000
    N5436    N        0.77692    0.71642    0.79371    1.000
    N5437    N        0.99041    0.64313    0.78448    1.000
    Si5438   Si       0.89727    0.68183    0.79508    1.000
    N5439    N        0.90003    0.72204    0.77795    1.000
    Si5440   Si       0.86570    0.74478    0.78962    1.000
    N5441    N        0.92306    0.64894    0.78341    1.000
    N5442    N        0.98016    0.70423    0.81782    1.000
    Si5443   Si       0.81028    0.55684    0.84480    1.000
    N5444    N        0.84981    0.56805    0.85416    1.000
    N5445    N        0.80656    0.51478    0.83142    1.000
    N5446    N        0.79269    0.58575    0.81773    1.000
    Si5447   Si       0.76716    0.62217    0.82127    1.000
    N5448    N        0.91944    0.56438    0.86604    1.000
    Si5449   Si       0.88537    0.54637    0.84649    1.000
    Si5450   Si       0.94753    0.59640    0.85830    1.000
    N5451    N        0.76393    0.63802    0.85946    1.000
    N5452    N        0.83665    0.64838    0.84906    1.000
    Si5453   Si       0.74445    0.72741    0.82242    1.000
    N5454    N        0.83419    0.74609    0.82114    1.000
    Si5455   Si       0.86017    0.68296    0.86636    1.000
    Si5456   Si       0.80387    0.64394    0.87697    1.000
    Si5457   Si       0.96437    0.73039    0.84700    1.000
    N5458    N        0.89377    0.68925    0.83865    1.000
    N5459    N        0.94203    0.63965    0.85047    1.000
    Si5460   Si       0.92225    0.67148    0.87011    1.000
    N5461    N        0.81174    0.62023    0.91192    1.000
    Si5462   Si       0.78099    0.58834    0.91906    1.000
    Si5463   Si       0.77421    0.52373    0.89776    1.000
    N5464    N        0.79091    0.56056    0.88342    1.000
    N5465    N        0.85068    0.52625    0.93374    1.000
    N5466    N        0.98375    0.59785    0.88230    1.000
    N5467    N        0.92689    0.52965    0.92445    1.000
    Si5468   Si       0.94396    0.53221    0.88470    1.000
    N5469    N        0.98541    0.53467    0.88421    1.000
    Si5470   Si       0.81336    0.70639    0.91680    1.000
    N5471    N        0.78988    0.68442    0.89102    1.000
    N5472    N        0.84839    0.71484    0.89206    1.000
    Si5473   Si       0.74924    0.67338    0.88245    1.000
    N5474    N        0.96254    0.64682    0.92657    1.000
    N5475    N        0.95116    0.70351    0.87958    1.000
    Si5476   Si       0.97261    0.68679    0.91249    1.000
    Si5477   Si       0.87847    0.67946    0.93713    1.000
    Si5478   Si       0.87834    0.74666    0.91011    1.000
    N5479    N        0.88945    0.66471    0.89653    1.000
    N5480    N        0.78389    0.59937    0.96095    1.000
    Si5481   Si       0.82281    0.62350    0.95595    1.000
    Si5482   Si       0.78140    0.53880    0.98492    1.000
    Si5483   Si       0.85596    0.55219    0.96792    1.000
    N5484    N        0.78109    0.52876    0.94282    1.000
    Si5485   Si       0.75084    0.60343    0.98836    1.000
    N5486    N        0.85939    0.59605    0.96085    1.000
    N5487    N        0.82363    0.54608    0.99551    1.000
    N5488    N        0.97164    0.54110    0.97738    1.000
    Si5489   Si       0.93379    0.55407    0.96214    1.000
    N5490    N        0.89535    0.53388    0.97661    1.000
    Si5491   Si       0.89320    0.61349    0.98171    1.000
    N5492    N        0.93198    0.59489    0.97618    1.000
    Si5493   Si       0.97104    0.60502    0.99161    1.000
    Si5494   Si       0.89254    0.50900    0.93631    1.000
    N5495    N        0.83497    0.67958    0.94627    1.000
    Si5496   Si       0.77110    0.72793    0.97320    1.000
    Si5497   Si       0.82602    0.68151    0.99048    1.000
    N5498    N        0.79351    0.73727    0.93932    1.000
    N5499    N        0.89407    0.71889    0.93918    1.000
    Si5500   Si       0.93422    0.73784    0.94656    1.000
    N5501    N        0.98458    0.75643    0.94822    1.000
    N5502    N        0.95668    0.70116    0.95431    1.000
    Si5503   Si       0.87232    0.74285    0.97714    1.000
    N5504    N        0.91595    0.75321    0.98489    1.000
    N5505    N        0.90173    0.65247    0.96166    1.000
    Si5506   Si       0.94311    0.66153    0.96476    1.000
    Si5507   Si       0.77972    0.84869    0.02534    1.000
    Si5508   Si       0.78320    0.77701    0.03538    1.000
    Si5509   Si       0.84229    0.88007    0.01813    1.000
    N5510    N        0.74596    0.83252    0.00333    1.000
    N5511    N        0.79718    0.81568    0.04821    1.000
    N5512    N        0.85173    0.85867    0.05456    1.000
    Si5513   Si       0.85386    0.76103    0.04960    1.000
    N5514    N        0.76430    0.76426    0.99784    1.000
    N5515    N        0.77247    0.88508    0.04916    1.000
    N5516    N        0.86249    0.77418    0.00877    1.000
    N5517    N        0.95738    0.79993    0.00134    1.000
    Si5518   Si       0.94403    0.79654    0.04207    1.000
    N5519    N        0.90596    0.81597    0.03516    1.000
    Si5520   Si       0.90361    0.79609    0.99591    1.000
    N5521    N        0.80712    0.98926    0.01312    1.000
    N5522    N        0.77236    0.95169    0.04939    1.000
    N5523    N        0.82948    0.91830    0.03146    1.000
    Si5524   Si       0.85098    0.95583    0.02281    1.000
    Si5525   Si       0.76890    0.96138    0.00578    1.000
    Si5526   Si       0.79829    0.98707    0.05619    1.000
    N5527    N        0.89450    0.94522    0.03685    1.000
    N5528    N        0.92026    0.88458    0.04875    1.000
    Si5529   Si       0.98008    0.01002    0.03751    1.000
    Si5530   Si       0.90350    0.90812    0.01556    1.000
    N5531    N        0.87805    0.00650    0.02462    1.000
    N5532    N        0.98493    0.90963    0.02657    1.000
    Si5533   Si       0.90829    0.97762    0.00574    1.000
    N5534    N        0.94934    0.98077    0.01900    1.000
    Si5535   Si       0.96974    0.94283    0.00163    1.000
    Si5536   Si       0.83017    0.82815    0.07601    1.000
    N5537    N        0.85386    0.79157    0.08024    1.000
    N5538    N        0.74692    0.86981    0.10655    1.000
    N5539    N        0.75372    0.76138    0.06501    1.000
    N5540    N        0.96417    0.81363    0.07550    1.000
    N5541    N        0.90216    0.84685    0.09998    1.000
    N5542    N        0.97486    0.87696    0.09530    1.000
    Si5543   Si       0.94545    0.84233    0.10276    1.000
    Si5544   Si       0.89310    0.84999    0.05664    1.000
    N5545    N        0.80716    0.91719    0.10241    1.000
    Si5546   Si       0.83997    0.94594    0.10491    1.000
    N5547    N        0.83699    0.97142    0.06695    1.000
    Si5548   Si       0.79726    0.91835    0.05841    1.000
    N5549    N        0.90198    0.99291    0.08654    1.000
    Si5550   Si       0.95897    0.90138    0.06177    1.000
    N5551    N        0.88245    0.93140    0.10719    1.000
    Si5552   Si       0.90841    0.95085    0.07701    1.000
    N5553    N        0.94949    0.93879    0.08183    1.000
    Si5554   Si       0.97564    0.96541    0.10117    1.000
    Si5555   Si       0.86617    0.00639    0.06656    1.000
    N5556    N        0.76619    0.80866    0.13078    1.000
    Si5557   Si       0.79901    0.83166    0.14846    1.000
    N5558    N        0.78672    0.87362    0.15990    1.000
    Si5559   Si       0.75904    0.76639    0.14056    1.000
    N5560    N        0.82864    0.83829    0.11949    1.000
    Si5561   Si       0.86727    0.78116    0.12021    1.000
    N5562    N        0.84485    0.75749    0.14959    1.000
    Si5563   Si       0.87164    0.84779    0.13201    1.000
    N5564    N        0.87840    0.80923    0.15356    1.000
    N5565    N        0.94781    0.82208    0.14092    1.000
    Si5566   Si       0.91907    0.79170    0.15494    1.000
    N5567    N        0.90954    0.76584    0.11992    1.000
    Si5568   Si       0.97486    0.83531    0.17242    1.000
    N5569    N        0.83078    0.97657    0.13526    1.000
    Si5570   Si       0.77261    0.89870    0.12806    1.000
    N5571    N        0.74605    0.93190    0.14058    1.000
    Si5572   Si       0.97945    0.90101    0.13307    1.000
    Si5573   Si       0.90142    0.91503    0.14137    1.000
    N5574    N        0.94280    0.91294    0.15171    1.000
    N5575    N        0.87494    0.88264    0.15852    1.000
    N5576    N        0.95752    0.99869    0.12348    1.000
    Si5577   Si       0.95377    0.00515    0.16562    1.000
    Si5578   Si       0.77863    0.78395    0.20921    1.000
    N5579    N        0.75260    0.82101    0.21867    1.000
    Si5580   Si       0.84536    0.78790    0.18110    1.000
    N5581    N        0.80717    0.80438    0.17947    1.000
    N5582    N        0.85706    0.78214    0.22150    1.000
    N5583    N        0.79889    0.86914    0.22899    1.000
    N5584    N        0.75086    0.76244    0.18285    1.000
    N5585    N        0.95036    0.84523    0.20496    1.000
    N5586    N        0.92902    0.78152    0.19779    1.000
    Si5587   Si       0.94178    0.80941    0.22801    1.000
    Si5588   Si       0.96285    0.87942    0.22894    1.000
    N5589    N        0.77302    0.97928    0.18432    1.000
    N5590    N        0.75937    0.92144    0.20929    1.000
    N5591    N        0.84453    0.98888    0.20094    1.000
    Si5592   Si       0.79273    0.89741    0.19634    1.000
    N5593    N        0.82258    0.92752    0.18335    1.000
    Si5594   Si       0.76185    0.00547    0.21555    1.000
    Si5595   Si       0.86239    0.91147    0.19066    1.000
    Si5596   Si       0.81353    0.96958    0.17570    1.000
    Si5597   Si       0.93678    0.93380    0.18890    1.000
    N5598    N        0.86657    0.90352    0.23258    1.000
    N5599    N        0.93386    0.91286    0.22659    1.000
    N5600    N        0.91216    0.00291    0.17614    1.000
    N5601    N        0.89426    0.94056    0.18041    1.000
    Si5602   Si       0.88798    0.97921    0.20177    1.000
    N5603    N        0.96562    0.96809    0.18926    1.000
    N5604    N        0.85242    0.84127    0.26320    1.000
    Si5605   Si       0.77049    0.84320    0.25089    1.000
    N5606    N        0.74830    0.87408    0.27515    1.000
    N5607    N        0.79048    0.82035    0.28025    1.000
    N5608    N        0.85503    0.78157    0.28477    1.000
    Si5609   Si       0.83798    0.87985    0.25162    1.000
    N5610    N        0.91514    0.81285    0.26177    1.000
    N5611    N        0.96449    0.86074    0.26812    1.000
    Si5612   Si       0.87526    0.80577    0.25245    1.000
    N5613    N        0.97830    0.79354    0.24463    1.000
    Si5614   Si       0.93964    0.83337    0.29136    1.000
    N5615    N        0.79496    0.99985    0.24415    1.000
    Si5616   Si       0.78852    0.97311    0.27815    1.000
    N5617    N        0.76543    0.93470    0.27385    1.000
    N5618    N        0.82333    0.89950    0.28725    1.000
    Si5619   Si       0.89929    0.92900    0.25356    1.000
    Si5620   Si       0.98651    0.95236    0.28717    1.000
    N5621    N        0.89597    0.97091    0.24271    1.000
    N5622    N        0.97307    0.99277    0.28400    1.000
    N5623    N        0.84861    0.83262    0.33208    1.000
    Si5624   Si       0.76027    0.80388    0.30599    1.000
    Si5625   Si       0.83103    0.81956    0.29472    1.000
    N5626    N        0.76386    0.75997    0.30193    1.000
    N5627    N        0.90445    0.79711    0.33762    1.000
    N5628    N        0.96639    0.80649    0.31321    1.000
    N5629    N        0.91594    0.86287    0.31438    1.000
    Si5630   Si       0.88896    0.84054    0.33973    1.000
    Si5631   Si       0.88154    0.76713    0.31602    1.000
    Si5632   Si       0.83056    0.99372    0.33743    1.000
    N5633    N        0.82212    0.96495    0.30413    1.000
    N5634    N        0.77730    0.90308    0.33798    1.000
    Si5635   Si       0.84733    0.93006    0.30620    1.000
    N5636    N        0.76291    0.99966    0.29983    1.000
    Si5637   Si       0.75827    0.98814    0.34255    1.000
    Si5638   Si       0.77832    0.90052    0.29423    1.000
    N5639    N        0.84585    0.91948    0.34820    1.000
    Si5640   Si       0.95089    0.00501    0.32028    1.000
    Si5641   Si       0.92120    0.90661    0.31889    1.000
    Si5642   Si       0.98605    0.88322    0.30043    1.000
    N5643    N        0.95963    0.91991    0.30169    1.000
    N5644    N        0.88861    0.92367    0.29465    1.000
    N5645    N        0.80953    0.85684    0.37714    1.000
    Si5646   Si       0.84198    0.82898    0.37508    1.000
    Si5647   Si       0.76747    0.83843    0.37897    1.000
    N5648    N        0.74881    0.87966    0.39081    1.000
    Si5649   Si       0.77174    0.75798    0.34679    1.000
    N5650    N        0.83829    0.80136    0.40739    1.000
    N5651    N        0.77523    0.80425    0.35005    1.000
    Si5652   Si       0.92833    0.78403    0.37117    1.000
    N5653    N        0.88293    0.84592    0.38200    1.000
    N5654    N        0.95064    0.82093    0.38377    1.000
    N5655    N        0.89939    0.77218    0.40333    1.000
    Si5656   Si       0.97939    0.82228    0.35055    1.000
    N5657    N        0.79541    0.99291    0.36293    1.000
    Si5658   Si       0.81081    0.89811    0.36581    1.000
    N5659    N        0.80398    0.92106    0.40161    1.000
    Si5660   Si       0.73950    0.91055    0.35554    1.000
    Si5661   Si       0.93978    0.91485    0.39415    1.000
    N5662    N        0.97942    0.91824    0.37792    1.000
    Si5663   Si       0.93912    0.98981    0.39476    1.000
    N5664    N        0.91059    0.91595    0.36089    1.000
    N5665    N        0.87055    0.98235    0.35063    1.000
    N5666    N        0.95688    0.97990    0.35618    1.000
    Si5667   Si       0.87731    0.94264    0.37071    1.000
    N5668    N        0.79268    0.87033    0.44687    1.000
    Si5669   Si       0.80854    0.78781    0.43651    1.000
    N5670    N        0.77383    0.80435    0.45462    1.000
    N5671    N        0.83961    0.78354    0.46663    1.000
    N5672    N        0.89176    0.82818    0.44910    1.000
    N5673    N        0.97073    0.82831    0.45332    1.000
    Si5674   Si       0.87907    0.78760    0.43966    1.000
    Si5675   Si       0.95734    0.86929    0.45964    1.000
    N5676    N        0.93735    0.87861    0.41961    1.000
    Si5677   Si       0.98408    0.82041    0.41410    1.000
    Si5678   Si       0.91390    0.84208    0.41135    1.000
    Si5679   Si       0.82813    0.94962    0.42442    1.000
    N5680    N        0.81490    0.99058    0.42908    1.000
    N5681    N        0.75006    0.92317    0.44710    1.000
    Si5682   Si       0.77398    0.89872    0.42125    1.000
    N5683    N        0.82060    0.93805    0.46586    1.000
    N5684    N        0.96889    0.00947    0.41923    1.000
    Si5685   Si       0.89949    0.95959    0.44000    1.000
    N5686    N        0.86852    0.94707    0.41122    1.000
    N5687    N        0.93463    0.95066    0.41759    1.000
    N5688    N        0.91866    0.99599    0.45812    1.000
    Si5689   Si       0.96456    0.98508    0.45885    1.000
    N5690    N        0.80238    0.82731    0.51022    1.000
    Si5691   Si       0.76913    0.79098    0.49843    1.000
    Si5692   Si       0.84114    0.80744    0.50590    1.000
    Si5693   Si       0.80764    0.86704    0.48640    1.000
    N5694    N        0.84954    0.87920    0.48565    1.000
    N5695    N        0.96597    0.76488    0.47699    1.000
    N5696    N        0.87449    0.83182    0.51866    1.000
    N5697    N        0.92837    0.86936    0.49126    1.000
    Si5698   Si       0.88686    0.85465    0.48381    1.000
    Si5699   Si       0.98451    0.80229    0.48469    1.000
    N5700    N        0.89603    0.76053    0.47088    1.000
    N5701    N        0.84143    0.00193    0.49576    1.000
    Si5702   Si       0.85272    0.92179    0.49123    1.000
    N5703    N        0.78528    0.89756    0.50810    1.000
    N5704    N        0.77626    0.96997    0.49713    1.000
    Si5705   Si       0.77846    0.93222    0.48073    1.000
    Si5706   Si       0.80634    0.99114    0.47250    1.000
    Si5707   Si       0.91744    0.94524    0.50701    1.000
    N5708    N        0.95532    0.94821    0.48962    1.000
    N5709    N        0.88902    0.93756    0.47511    1.000
    N5710    N        0.77122    0.78309    0.54550    1.000
    Si5711   Si       0.78268    0.82442    0.54968    1.000
    N5712    N        0.74791    0.85052    0.54692    1.000
    N5713    N        0.85915    0.88194    0.57408    1.000
    N5714    N        0.84801    0.77200    0.53001    1.000
    N5715    N        0.80832    0.83582    0.58218    1.000
    Si5716   Si       0.86353    0.77107    0.56891    1.000
    N5717    N        0.92446    0.84613    0.55884    1.000
    Si5718   Si       0.94258    0.80544    0.54988    1.000
    Si5719   Si       0.88095    0.84506    0.55940    1.000
    N5720    N        0.92389    0.76922    0.53391    1.000
    Si5721   Si       0.93750    0.87864    0.53209    1.000
    N5722    N        0.97864    0.88520    0.54391    1.000
    N5723    N        0.97702    0.81556    0.52505    1.000
    Si5724   Si       0.75970    0.89296    0.54369    1.000
    N5725    N        0.75988    0.97269    0.57265    1.000
    N5726    N        0.78706    0.90592    0.57555    1.000
    N5727    N        0.85272    0.94007    0.53108    1.000
    Si5728   Si       0.74905    0.97984    0.52972    1.000
    N5729    N        0.85128    0.00181    0.56344    1.000
    Si5730   Si       0.86401    0.98337    0.52732    1.000
    N5731    N        0.90772    0.97967    0.53347    1.000
    Si5732   Si       0.94072    0.98535    0.56117    1.000
    N5733    N        0.95838    0.94763    0.57936    1.000
    N5734    N        0.97763    0.99875    0.54582    1.000
    Si5735   Si       0.87800    0.92063    0.56326    1.000
    N5736    N        0.91207    0.91269    0.53610    1.000
    Si5737   Si       0.83285    0.80885    0.60362    1.000
    N5738    N        0.82473    0.76726    0.59040    1.000
    Si5739   Si       0.81922    0.87860    0.59052    1.000
    Si5740   Si       0.74685    0.76352    0.63153    1.000
    N5741    N        0.81767    0.88403    0.63367    1.000
    Si5742   Si       0.91394    0.80893    0.61210    1.000
    N5743    N        0.94957    0.79036    0.59182    1.000
    N5744    N        0.87497    0.81156    0.58927    1.000
    N5745    N        0.92294    0.83927    0.64064    1.000
    N5746    N        0.91333    0.77464    0.64347    1.000
    N5747    N        0.76295    0.92742    0.63521    1.000
    Si5748   Si       0.78167    0.94441    0.59666    1.000
    N5749    N        0.81812    0.95069    0.61847    1.000
    Si5750   Si       0.85954    0.95576    0.62704    1.000
    Si5751   Si       0.93192    0.94152    0.61341    1.000
    N5752    N        0.89017    0.94139    0.59957    1.000
    N5753    N        0.87499    0.99811    0.62839    1.000
    N5754    N        0.94341    0.91215    0.64361    1.000
    Si5755   Si       0.81582    0.85280    0.66316    1.000
    Si5756   Si       0.81536    0.78107    0.67411    1.000
    N5757    N        0.77381    0.84794    0.67268    1.000
    N5758    N        0.77413    0.77359    0.66439    1.000
    Si5759   Si       0.75069    0.81159    0.67325    1.000
    N5760    N        0.84217    0.86206    0.69460    1.000
    N5761    N        0.82581    0.81398    0.64497    1.000
    N5762    N        0.95814    0.80227    0.68776    1.000
    Si5763   Si       0.88907    0.77098    0.67924    1.000
    Si5764   Si       0.92201    0.82748    0.68413    1.000
    Si5765   Si       0.94985    0.87219    0.65274    1.000
    N5766    N        0.93151    0.86927    0.69552    1.000
    Si5767   Si       0.95125    0.75885    0.67660    1.000
    N5768    N        0.98994    0.85601    0.64783    1.000
    N5769    N        0.80681    0.91715    0.69138    1.000
    Si5770   Si       0.84843    0.90390    0.69579    1.000
    Si5771   Si       0.80320    0.92123    0.64904    1.000
    Si5772   Si       0.95415    0.94530    0.67199    1.000
    Si5773   Si       0.91143    0.00301    0.65367    1.000
    N5774    N        0.86471    0.93602    0.66831    1.000
    N5775    N        0.89298    0.99697    0.69161    1.000
    N5776    N        0.93958    0.97404    0.64340    1.000
    Si5777   Si       0.78505    0.81066    0.73913    1.000
    Si5778   Si       0.85231    0.82623    0.71832    1.000
    N5779    N        0.81768    0.80079    0.71246    1.000
    N5780    N        0.75078    0.79387    0.71916    1.000
    N5781    N        0.77955    0.85334    0.75201    1.000
    Si5782   Si       0.74348    0.87815    0.76104    1.000
    Si5783   Si       0.96851    0.78325    0.72818    1.000
    N5784    N        0.88609    0.80935    0.69870    1.000
    N5785    N        0.94688    0.76261    0.75820    1.000
    Si5786   Si       0.78738    0.92634    0.73022    1.000
    Si5787   Si       0.82731    0.98458    0.74750    1.000
    Si5788   Si       0.75934    0.99912    0.73505    1.000
    N5789    N        0.74647    0.91578    0.73802    1.000
    N5790    N        0.79049    0.96984    0.73325    1.000
    N5791    N        0.81876    0.91032    0.75768    1.000
    N5792    N        0.93081    0.93985    0.70723    1.000
    N5793    N        0.86720    0.96425    0.74459    1.000
    Si5794   Si       0.92218    0.89903    0.72519    1.000
    Si5795   Si       0.88888    0.95558    0.70490    1.000
    N5796    N        0.87949    0.90821    0.72586    1.000
    N5797    N        0.78512    0.78611    0.77535    1.000
    Si5798   Si       0.75308    0.79856    0.80272    1.000
    N5799    N        0.82506    0.87109    0.81272    1.000
    Si5800   Si       0.81819    0.86828    0.76884    1.000
    Si5801   Si       0.86172    0.82119    0.80042    1.000
    N5802    N        0.84630    0.83626    0.76147    1.000
    N5803    N        0.98301    0.86356    0.79575    1.000
    N5804    N        0.94299    0.81714    0.79677    1.000
    Si5805   Si       0.92563    0.77704    0.79477    1.000
    Si5806   Si       0.93237    0.85993    0.79861    1.000
    N5807    N        0.88244    0.78512    0.79190    1.000
    Si5808   Si       0.98457    0.82088    0.78817    1.000
    N5809    N        0.88988    0.85117    0.81550    1.000
    N5810    N        0.92602    0.88496    0.76433    1.000
    N5811    N        0.73782    0.89630    0.80035    1.000
    N5812    N        0.83621    0.99033    0.78930    1.000
    N5813    N        0.78094    0.94899    0.81944    1.000
    Si5814   Si       0.85900    0.92265    0.76192    1.000
    N5815    N        0.87049    0.92104    0.80573    1.000
    Si5816   Si       0.87810    0.99454    0.77482    1.000
    Si5817   Si       0.93461    0.01021    0.81361    1.000
    N5818    N        0.90302    0.98056    0.80640    1.000
    Si5819   Si       0.80190    0.84427    0.83906    1.000
    N5820    N        0.83091    0.81240    0.83168    1.000
    Si5821   Si       0.83629    0.77598    0.85305    1.000
    N5822    N        0.75665    0.76714    0.83300    1.000
    N5823    N        0.76448    0.83701    0.82053    1.000
    Si5824   Si       0.76523    0.78004    0.87219    1.000
    N5825    N        0.80466    0.86529    0.87764    1.000
    N5826    N        0.94286    0.87250    0.84246    1.000
    Si5827   Si       0.90773    0.85293    0.85727    1.000
    N5828    N        0.93421    0.75781    0.83642    1.000
    N5829    N        0.87478    0.76944    0.87131    1.000
    Si5830   Si       0.91747    0.77927    0.87241    1.000
    N5831    N        0.84467    0.96151    0.85135    1.000
    Si5832   Si       0.81385    0.97523    0.82191    1.000
    Si5833   Si       0.86248    0.88380    0.82812    1.000
    N5834    N        0.87391    0.87772    0.86920    1.000
    N5835    N        0.91101    0.93615    0.86281    1.000
    Si5836   Si       0.95256    0.95138    0.85771    1.000
    N5837    N        0.97325    0.93151    0.82500    1.000
    N5838    N        0.95098    0.99329    0.84887    1.000
    Si5839   Si       0.98267    0.88761    0.83566    1.000
    Si5840   Si       0.88405    0.95135    0.83274    1.000
    Si5841   Si       0.76415    0.86059    0.89201    1.000
    N5842    N        0.75367    0.81946    0.88777    1.000
    N5843    N        0.80614    0.77767    0.88457    1.000
    Si5844   Si       0.81227    0.77526    0.92793    1.000
    N5845    N        0.77214    0.87397    0.93456    1.000
    Si5846   Si       0.83855    0.88094    0.89831    1.000
    N5847    N        0.84326    0.85849    0.93455    1.000
    Si5848   Si       0.93228    0.81216    0.92605    1.000
    N5849    N        0.92149    0.76884    0.91537    1.000
    N5850    N        0.92123    0.82139    0.88451    1.000
    N5851    N        0.90644    0.88701    0.92842    1.000
    N5852    N        0.79449    0.97300    0.90150    1.000
    Si5853   Si       0.83459    0.96139    0.89432    1.000
    N5854    N        0.85338    0.92431    0.90619    1.000
    Si5855   Si       0.76203    0.96479    0.92877    1.000
    N5856    N        0.86098    0.98874    0.91485    1.000
    N5857    N        0.97895    0.94788    0.89334    1.000
    N5858    N        0.92201    0.94845    0.92877    1.000
    Si5859   Si       0.96133    0.97018    0.92709    1.000
    N5860    N        0.97627    0.89160    0.93510    1.000
    Si5861   Si       0.89286    0.91174    0.89472    1.000
    Si5862   Si       0.75772    0.80207    0.97383    1.000
    Si5863   Si       0.80491    0.85097    0.95381    1.000
    N5864    N        0.79302    0.80805    0.95000    1.000
    N5865    N        0.85292    0.76535    0.93996    1.000
    N5866    N        0.81095    0.85996    0.99511    1.000
    Si5867   Si       0.88189    0.85950    0.95433    1.000
    N5868    N        0.90309    0.81970    0.95988    1.000
    N5869    N        0.97123    0.82362    0.94101    1.000
    Si5870   Si       0.98570    0.79382    0.97078    1.000
    N5871    N        0.87767    0.88214    0.99269    1.000
    N5872    N        0.77054    0.94073    0.96695    1.000
    Si5873   Si       0.74758    0.90663    0.94918    1.000
    Si5874   Si       0.88703    0.97055    0.94535    1.000
    N5875    N        0.90555    0.00675    0.96505    1.000
    N5876    N        0.87063    0.95725    0.98138    1.000
    N5877    N        0.98417    0.95796    0.96272    1.000
    N5878    N        0.93432    0.92090    0.98789    1.000
    Si5879   Si       0.93705    0.90993    0.94637    1.000
