# CIF file generated by openbabel 3.1.1, see https://openbabel.org
data_I
_chemical_name_common '3.01-3.aims'
_cell_length_a 39.9771
_cell_length_b 39.9771
_cell_length_c 39.9771
_cell_angle_alpha 90
_cell_angle_beta 90
_cell_angle_gamma 90
loop_
    _atom_site_label
    _atom_site_type_symbol
    _atom_site_fract_x
    _atom_site_fract_y
    _atom_site_fract_z
    _atom_site_occupancy
    N0       N        0.03156    0.06764    0.07356    1.000
    Si1      Si       0.00961    0.08716    0.04322    1.000
    Si2      Si       0.00651    0.04672    0.10419    1.000
    N3       N        0.03243    0.10564    0.01079    1.000
    N4       N        0.03094    0.01222    0.10817    1.000
    N5       N        0.03320    0.13304    0.11538    1.000
    N6       N        0.00380    0.18578    0.06613    1.000
    Si7      Si       0.99759    0.15024    0.08928    1.000
    N8       N        0.00717    0.25029    0.04724    1.000
    Si9      Si       0.00007    0.03105    0.22190    1.000
    N10      N        0.00982    0.07292    0.22711    1.000
    N11      N        0.00384    0.06715    0.14180    1.000
    Si12     Si       0.03328    0.10068    0.14448    1.000
    Si13     Si       0.04103    0.17528    0.13255    1.000
    N14      N        0.00660    0.19403    0.15068    1.000
    Si15     Si       0.00237    0.17827    0.24169    1.000
    N16      N        0.03722    0.17669    0.21601    1.000
    Si17     Si       0.02071    0.20846    0.18961    1.000
    N18      N        0.03474    0.24905    0.18629    1.000
    N19      N        0.01420    0.05852    0.31286    1.000
    Si20     Si       0.99290    0.02141    0.30144    1.000
    N21      N        0.01693    0.13652    0.31907    1.000
    Si22     Si       0.00837    0.15622    0.35845    1.000
    N23      N        0.03355    0.19190    0.34725    1.000
    N24      N        0.00234    0.19421    0.28203    1.000
    Si25     Si       0.03809    0.20388    0.30572    1.000
    Si26     Si       0.99386    0.07264    0.46171    1.000
    N27      N        0.00664    0.06311    0.42129    1.000
    Si28     Si       0.01234    0.09016    0.38839    1.000
    Si29     Si       0.00460    0.02114    0.41843    1.000
    N30      N        0.02066    0.04924    0.48703    1.000
    N31      N        0.02998    0.00952    0.38470    1.000
    N32      N        0.02478    0.13440    0.39062    1.000
    Si33     Si       0.00638    0.14073    0.48502    1.000
    N34      N        0.02626    0.16754    0.45736    1.000
    N35      N        0.99946    0.22045    0.42433    1.000
    Si36     Si       0.03818    0.20430    0.43664    1.000
    Si37     Si       0.04717    0.25686    0.34902    1.000
    Si38     Si       0.04890    0.14488    0.42620    1.000
    N39      N        0.99143    0.01637    0.26052    1.000
    Si40     Si       0.02538    0.00716    0.48629    1.000
    N41      N        0.02851    0.11343    0.50792    1.000
    Si42     Si       0.99507    0.08623    0.61145    1.000
    Si43     Si       0.02418    0.11040    0.55175    1.000
    N44      N        0.00263    0.04173    0.61388    1.000
    N45      N        0.99494    0.21652    0.64854    1.000
    N46      N        0.01036    0.20767    0.54578    1.000
    Si47     Si       0.01457    0.24999    0.55860    1.000
    N48      N        0.04206    0.14671    0.56847    1.000
    N49      N        0.02905    0.10917    0.62429    1.000
    Si50     Si       0.03995    0.09598    0.66205    1.000
    Si51     Si       0.03548    0.05352    0.72169    1.000
    N52      N        0.01470    0.07216    0.68877    1.000
    N53      N        0.03834    0.00999    0.71810    1.000
    N54      N        0.00667    0.17106    0.69628    1.000
    Si55     Si       0.01007    0.25301    0.63201    1.000
    Si56     Si       0.02772    0.19661    0.66716    1.000
    Si57     Si       0.03468    0.14870    0.71970    1.000
    N58      N        0.04480    0.24938    0.74038    1.000
    Si59     Si       0.01341    0.04068    0.78925    1.000
    N60      N        0.00259    0.05803    0.82914    1.000
    N61      N        0.00935    0.06491    0.75458    1.000
    Si62     Si       0.99219    0.08557    0.86195    1.000
    Si63     Si       0.99026    0.01684    0.84075    1.000
    N64      N        0.01090    0.13595    0.75436    1.000
    N65      N        0.01015    0.14812    0.81726    1.000
    N66      N        0.01177    0.21045    0.78297    1.000
    N67      N        0.02163    0.21427    0.85059    1.000
    Si68     Si       0.01663    0.17063    0.85508    1.000
    Si69     Si       0.02745    0.16681    0.78129    1.000
    Si70     Si       0.00442    0.23747    0.75114    1.000
    Si71     Si       0.04147    0.22163    0.81340    1.000
    N72      N        0.02818    0.10144    0.87989    1.000
    Si73     Si       0.01746    0.07928    0.92186    1.000
    N74      N        0.03060    0.11991    0.93831    1.000
    N75      N        0.99495    0.06670    0.95695    1.000
    N76      N        0.04556    0.04379    0.91988    1.000
    Si77     Si       0.01404    0.21628    0.96261    1.000
    Si78     Si       0.01838    0.13587    0.98069    1.000
    N79      N        0.01316    0.21581    0.92074    1.000
    N80      N        0.04521    0.24536    0.97472    1.000
    N81      N        0.02819    0.17811    0.97912    1.000
    Si82     Si       0.03383    0.23382    0.88594    1.000
    N83      N        0.01580    0.31173    0.08312    1.000
    N84      N        0.03513    0.29500    0.01985    1.000
    Si85     Si       0.99620    0.29364    0.04516    1.000
    N86      N        0.02782    0.35915    0.99799    1.000
    Si87     Si       0.98788    0.34870    0.00153    1.000
    N88      N        0.03626    0.41171    0.04042    1.000
    Si89     Si       0.03747    0.43262    0.00191    1.000
    Si90     Si       0.99779    0.39869    0.05290    1.000
    N91      N        0.03477    0.47508    0.01005    1.000
    Si92     Si       0.00899    0.31836    0.23418    1.000
    Si93     Si       0.00836    0.27985    0.16850    1.000
    N94      N        0.02795    0.36523    0.13613    1.000
    N95      N        0.02490    0.37385    0.20357    1.000
    N96      N        0.03906    0.30439    0.14780    1.000
    Si97     Si       0.04077    0.34085    0.17726    1.000
    N98      N        0.99864    0.42557    0.22881    1.000
    Si99     Si       0.98867    0.37735    0.12869    1.000
    Si100    Si       0.00555    0.41119    0.18810    1.000
    N101     N        0.00253    0.50303    0.18643    1.000
    Si102    Si       0.01529    0.47963    0.15296    1.000
    N103     N        0.03046    0.44350    0.17071    1.000
    Si104    Si       0.02086    0.38989    0.24374    1.000
    N105     N        0.03326    0.36389    0.32902    1.000
    N106     N        0.00827    0.28675    0.26173    1.000
    N107     N        0.00712    0.35232    0.26116    1.000
    Si108    Si       0.99657    0.38242    0.34804    1.000
    Si109    Si       0.04256    0.35189    0.28821    1.000
    N110     N        0.00812    0.25921    0.36656    1.000
    N111     N        0.02782    0.46414    0.34696    1.000
    N112     N        0.00225    0.47414    0.28361    1.000
    Si113    Si       0.99474    0.45766    0.32301    1.000
    Si114    Si       0.04231    0.50394    0.35280    1.000
    N115     N        0.01584    0.40139    0.38203    1.000
    Si116    Si       0.03816    0.27550    0.45761    1.000
    Si117    Si       0.99858    0.26568    0.41177    1.000
    N118     N        0.03883    0.28543    0.41526    1.000
    N119     N        0.99371    0.27857    0.45667    1.000
    N120     N        0.03920    0.38042    0.45145    1.000
    Si121    Si       0.00490    0.39351    0.42340    1.000
    N122     N        0.99444    0.43507    0.43430    1.000
    Si123    Si       0.02902    0.45781    0.44569    1.000
    Si124    Si       0.04255    0.43454    0.37508    1.000
    N125     N        0.01287    0.49878    0.45260    1.000
    Si126    Si       0.03365    0.33792    0.58999    1.000
    N127     N        0.00661    0.27515    0.52433    1.000
    N128     N        0.99131    0.26168    0.59404    1.000
    N129     N        0.99050    0.33440    0.59150    1.000
    Si130    Si       0.04316    0.29851    0.52816    1.000
    Si131    Si       0.99300    0.41162    0.53958    1.000
    N132     N        0.03393    0.39882    0.53149    1.000
    N133     N        0.03562    0.45904    0.58330    1.000
    Si134    Si       0.99437    0.45448    0.60386    1.000
    N135     N        0.02322    0.50208    0.52837    1.000
    N136     N        0.99046    0.41643    0.58427    1.000
    N137     N        0.00105    0.29047    0.65246    1.000
    N138     N        0.03203    0.35554    0.66775    1.000
    Si139    Si       0.99704    0.37337    0.68735    1.000
    Si140    Si       0.03620    0.31373    0.65704    1.000
    N141     N        0.00960    0.47219    0.64442    1.000
    N142     N        0.02112    0.45374    0.70182    1.000
    N143     N        0.99702    0.38760    0.72947    1.000
    N144     N        0.04764    0.37994    0.60046    1.000
    Si145    Si       0.05152    0.42302    0.60118    1.000
    N146     N        0.03329    0.31700    0.76207    1.000
    Si147    Si       0.03002    0.28628    0.83519    1.000
    N148     N        0.02129    0.37778    0.79759    1.000
    N149     N        0.99198    0.28792    0.81428    1.000
    N150     N        0.00459    0.49494    0.94395    1.000
    Si151    Si       0.99103    0.30737    0.77446    1.000
    N152     N        0.03933    0.38422    0.86527    1.000
    Si153    Si       0.01445    0.40596    0.76327    1.000
    Si154    Si       0.02094    0.40396    0.83265    1.000
    Si155    Si       0.01676    0.46985    0.79389    1.000
    N156     N        0.03902    0.44139    0.81906    1.000
    N157     N        0.99569    0.49219    0.82614    1.000
    N158     N        0.03996    0.48740    0.75614    1.000
    Si159    Si       0.00576    0.50052    0.98938    1.000
    Si160    Si       0.01264    0.27739    0.98591    1.000
    N161     N        0.02769    0.27526    0.87900    1.000
    Si162    Si       0.02054    0.30690    0.90692    1.000
    N163     N        0.01019    0.30355    0.94932    1.000
    Si164    Si       0.99249    0.39746    0.94832    1.000
    N165     N        0.02382    0.44460    0.89729    1.000
    Si166    Si       0.03759    0.48058    0.91831    1.000
    N167     N        0.99910    0.42523    0.98171    1.000
    N168     N        0.03411    0.38987    0.93406    1.000
    Si169    Si       0.04877    0.41002    0.89673    1.000
    Si170    Si       0.02807    0.60986    0.03284    1.000
    N171     N        0.01794    0.51510    0.06507    1.000
    Si172    Si       0.99331    0.52520    0.09949    1.000
    N173     N        0.99549    0.58180    0.03665    1.000
    Si174    Si       0.03272    0.54813    0.04007    1.000
    N175     N        0.02333    0.53919    0.99908    1.000
    N176     N        0.98892    0.61378    0.09357    1.000
    N177     N        0.03069    0.73667    0.11172    1.000
    N178     N        0.02663    0.64867    0.04988    1.000
    Si179    Si       0.04007    0.74598    0.06997    1.000
    Si180    Si       0.02152    0.69453    0.12124    1.000
    N181     N        0.02771    0.74116    0.18309    1.000
    N182     N        0.01089    0.67668    0.15893    1.000
    N183     N        0.01293    0.55441    0.12329    1.000
    Si184    Si       0.00782    0.59721    0.12917    1.000
    Si185    Si       0.02143    0.53577    0.20870    1.000
    N186     N        0.99501    0.56942    0.20808    1.000
    Si187    Si       0.01016    0.60463    0.23028    1.000
    N188     N        0.99039    0.63962    0.21225    1.000
    Si189    Si       0.01769    0.70153    0.19251    1.000
    N190     N        0.04384    0.75011    0.24794    1.000
    N191     N        0.02453    0.60846    0.32763    1.000
    N192     N        0.03196    0.53281    0.32223    1.000
    Si193    Si       0.00999    0.51847    0.28644    1.000
    N194     N        0.03247    0.53167    0.25042    1.000
    Si195    Si       0.00189    0.62990    0.35867    1.000
    Si196    Si       0.01312    0.65864    0.42933    1.000
    Si197    Si       0.00946    0.63507    0.29098    1.000
    Si198    Si       0.03565    0.72098    0.34062    1.000
    N199     N        0.99400    0.72211    0.32802    1.000
    N200     N        0.99194    0.67290    0.27609    1.000
    Si201    Si       0.05130    0.57343    0.32936    1.000
    Si202    Si       0.01303    0.58276    0.45489    1.000
    N203     N        0.03228    0.52109    0.39031    1.000
    Si204    Si       0.99812    0.51872    0.41647    1.000
    N205     N        0.00496    0.62594    0.45900    1.000
    Si206    Si       0.03091    0.52008    0.48775    1.000
    N207     N        0.01706    0.56167    0.49201    1.000
    N208     N        0.01967    0.75219    0.49133    1.000
    N209     N        0.03558    0.73556    0.38231    1.000
    N210     N        0.02916    0.64877    0.38915    1.000
    N211     N        0.02860    0.69654    0.44614    1.000
    Si212    Si       0.03374    0.71136    0.48721    1.000
    N213     N        0.03426    0.60703    0.58964    1.000
    N214     N        0.00055    0.61914    0.53152    1.000
    Si215    Si       0.00626    0.57077    0.59905    1.000
    N216     N        0.99374    0.55573    0.56102    1.000
    N217     N        0.02462    0.53701    0.62015    1.000
    Si218    Si       0.99036    0.57725    0.52445    1.000
    Si219    Si       0.02397    0.63965    0.56152    1.000
    N220     N        0.00492    0.67482    0.58189    1.000
    N221     N        0.00775    0.68590    0.51092    1.000
    Si222    Si       0.99519    0.64556    0.49851    1.000
    Si223    Si       0.01698    0.51860    0.73479    1.000
    Si224    Si       0.00300    0.51518    0.65192    1.000
    N225     N        0.02773    0.60556    0.70894    1.000
    N226     N        0.02105    0.53077    0.68983    1.000
    Si227    Si       0.02830    0.61387    0.63199    1.000
    Si228    Si       0.00461    0.58948    0.74143    1.000
    Si229    Si       0.03720    0.64372    0.69164    1.000
    Si230    Si       0.02247    0.69640    0.74462    1.000
    N231     N        0.00886    0.66994    0.71170    1.000
    Si232    Si       0.01236    0.68597    0.62380    1.000
    N233     N        0.04203    0.71874    0.63087    1.000
    N234     N        0.02649    0.65179    0.64938    1.000
    Si235    Si       0.02810    0.59333    0.84852    1.000
    N236     N        0.00302    0.61350    0.77647    1.000
    N237     N        0.01197    0.55418    0.84052    1.000
    Si238    Si       0.02816    0.51467    0.84586    1.000
    Si239    Si       0.04568    0.64033    0.96843    1.000
    Si240    Si       0.03905    0.69602    0.87669    1.000
    Si241    Si       0.02314    0.64576    0.79850    1.000
    N242     N        0.00999    0.71439    0.85053    1.000
    N243     N        0.04451    0.67695    0.77789    1.000
    N244     N        0.02811    0.60408    0.98704    1.000
    N245     N        0.03470    0.56059    0.93656    1.000
    N246     N        0.04264    0.50952    0.88628    1.000
    Si247    Si       0.04655    0.56675    0.97637    1.000
    Si248    Si       0.99371    0.57089    0.92712    1.000
    N249     N        0.02326    0.72432    0.98624    1.000
    Si250    Si       0.00458    0.64267    0.91157    1.000
    N251     N        0.01502    0.66220    0.94870    1.000
    N252     N        0.03905    0.65300    0.88743    1.000
    Si253    Si       0.01669    0.70503    0.94793    1.000
    N254     N        0.04379    0.71447    0.91630    1.000
    N255     N        0.03260    0.55555    0.75228    1.000
    N256     N        0.02500    0.83523    0.03727    1.000
    Si257    Si       0.00790    0.87555    0.03955    1.000
    Si258    Si       0.01198    0.76227    0.00515    1.000
    N259     N        0.04277    0.83410    0.10980    1.000
    N260     N        0.99475    0.88151    0.08012    1.000
    N261     N        0.04192    0.90321    0.04857    1.000
    Si262    Si       0.02597    0.98356    0.07447    1.000
    N263     N        0.00562    0.94861    0.08893    1.000
    Si264    Si       0.02613    0.91083    0.08867    1.000
    N265     N        0.00264    0.99472    0.04077    1.000
    Si266    Si       0.00951    0.97512    0.00182    1.000
    N267     N        0.04354    0.86255    0.17525    1.000
    N268     N        0.00298    0.79322    0.15501    1.000
    Si269    Si       0.03264    0.76397    0.14725    1.000
    Si270    Si       0.01909    0.76854    0.21648    1.000
    Si271    Si       0.01134    0.83181    0.17929    1.000
    N272     N        0.03426    0.80864    0.20796    1.000
    N273     N        0.02455    0.99858    0.20684    1.000
    N274     N        0.03613    0.92524    0.21844    1.000
    Si275    Si       0.01572    0.95542    0.19527    1.000
    N276     N        0.04039    0.96156    0.15771    1.000
    N277     N        0.00689    0.75986    0.04679    1.000
    N278     N        0.03002    0.83981    0.32164    1.000
    N279     N        0.99742    0.77778    0.29298    1.000
    Si280    Si       0.04071    0.77418    0.28283    1.000
    N281     N        0.02171    0.87717    0.27586    1.000
    Si282    Si       0.03904    0.84432    0.36446    1.000
    N283     N        0.99224    0.78915    0.36104    1.000
    Si284    Si       0.99335    0.84999    0.29823    1.000
    Si285    Si       0.02885    0.91815    0.25953    1.000
    N286     N        0.00392    0.98472    0.32214    1.000
    Si287    Si       0.01935    0.97278    0.36162    1.000
    Si288    Si       0.03187    0.77682    0.45860    1.000
    N289     N        0.01673    0.87618    0.46605    1.000
    Si290    Si       0.02336    0.77661    0.39008    1.000
    N291     N        0.00228    0.84573    0.39005    1.000
    N292     N        0.00161    0.78459    0.42896    1.000
    Si293    Si       0.99502    0.86373    0.42865    1.000
    N294     N        0.98880    0.96055    0.38812    1.000
    N295     N        0.04085    0.92800    0.42533    1.000
    N296     N        0.01818    0.99079    0.44737    1.000
    Si297    Si       0.00479    0.95180    0.42971    1.000
    N298     N        0.00736    0.84059    0.58955    1.000
    Si299    Si       0.00524    0.77518    0.52622    1.000
    Si300    Si       0.03313    0.83313    0.54505    1.000
    N301     N        0.99913    0.81738    0.51558    1.000
    N302     N        0.01334    0.87726    0.53933    1.000
    Si303    Si       0.04037    0.85019    0.61609    1.000
    N304     N        0.04202    0.78952    0.54426    1.000
    Si305    Si       0.99488    0.86177    0.50169    1.000
    Si306    Si       0.01611    0.98064    0.55779    1.000
    N307     N        0.03673    0.94258    0.55517    1.000
    N308     N        0.99921    0.98557    0.51686    1.000
    N309     N        0.99397    0.97878    0.59386    1.000
    Si310    Si       0.04956    0.90262    0.53651    1.000
    N311     N        0.99846    0.77034    0.62888    1.000
    N312     N        0.03187    0.83030    0.65212    1.000
    Si313    Si       0.01466    0.81985    0.73935    1.000
    Si314    Si       0.99611    0.84451    0.67639    1.000
    N315     N        0.01801    0.77634    0.74256    1.000
    Si316    Si       0.03774    0.76435    0.64441    1.000
    Si317    Si       0.99298    0.90951    0.72067    1.000
    Si318    Si       0.01871    0.91396    0.65247    1.000
    Si319    Si       0.01694    0.97832    0.69454    1.000
    N320     N        0.03679    0.95154    0.66753    1.000
    N321     N        0.00593    0.88544    0.68473    1.000
    Si322    Si       0.01898    0.00203    0.62097    1.000
    N323     N        0.99589    0.99980    0.66131    1.000
    N324     N        0.00734    0.95034    0.73026    1.000
    N325     N        0.00717    0.83573    0.77870    1.000
    Si326    Si       0.01804    0.87640    0.78778    1.000
    N327     N        0.03461    0.93844    0.80571    1.000
    Si328    Si       0.03549    0.93876    0.76214    1.000
    N329     N        0.99636    0.94195    0.86816    1.000
    N330     N        0.03235    0.89723    0.75066    1.000
    Si331    Si       0.99525    0.93320    0.82315    1.000
    N332     N        0.02267    0.00244    0.86929    1.000
    N333     N        0.99054    0.89095    0.81954    1.000
    N334     N        0.01890    0.81669    0.89780    1.000
    N335     N        0.00921    0.84688    0.96497    1.000
    Si336    Si       0.01930    0.85101    0.92238    1.000
    N337     N        0.04485    0.78943    0.99300    1.000
    Si338    Si       0.03793    0.83236    0.99494    1.000
    N339     N        0.99768    0.88238    0.90470    1.000
    N340     N        0.04321    0.94750    0.99449    1.000
    N341     N        0.02808    0.94792    0.92250    1.000
    Si342    Si       0.02280    0.91436    0.89398    1.000
    Si343    Si       0.00417    0.97479    0.89680    1.000
    N344     N        0.01720    0.00644    0.97303    1.000
    Si345    Si       0.07273    0.05864    0.08763    1.000
    Si346    Si       0.07365    0.11793    0.02598    1.000
    N347     N        0.09212    0.09233    0.06660    1.000
    N348     N        0.10041    0.02480    0.08958    1.000
    Si349    Si       0.07267    0.12417    0.09379    1.000
    Si350    Si       0.09133    0.22949    0.09151    1.000
    N351     N        0.06522    0.21746    0.03829    1.000
    N352     N        0.05869    0.14479    0.05638    1.000
    N353     N        0.06008    0.19606    0.09905    1.000
    Si354    Si       0.10589    0.22567    0.02459    1.000
    Si355    Si       0.04617    0.18615    0.05940    1.000
    N356     N        0.10765    0.14747    0.10663    1.000
    Si357    Si       0.05206    0.25838    0.04236    1.000
    N358     N        0.06973    0.07979    0.12764    1.000
    Si359    Si       0.09749    0.06145    0.15449    1.000
    N360     N        0.07816    0.02088    0.16339    1.000
    N361     N        0.07414    0.05167    0.22093    1.000
    N362     N        0.07210    0.11379    0.23885    1.000
    Si363    Si       0.06636    0.01147    0.20493    1.000
    Si364    Si       0.04875    0.08414    0.21731    1.000
    N365     N        0.04454    0.11250    0.18321    1.000
    N366     N        0.07706    0.25848    0.24165    1.000
    Si367    Si       0.06646    0.14558    0.20051    1.000
    N368     N        0.07123    0.17056    0.16037    1.000
    N369     N        0.10408    0.16306    0.21804    1.000
    N370     N        0.07381    0.10040    0.30744    1.000
    N371     N        0.08155    0.03293    0.33611    1.000
    Si372    Si       0.09828    0.10197    0.27220    1.000
    Si373    Si       0.05489    0.06755    0.32722    1.000
    N374     N        0.05243    0.07654    0.37096    1.000
    Si375    Si       0.06287    0.14151    0.31643    1.000
    N376     N        0.06844    0.17543    0.28743    1.000
    N377     N        0.08657    0.15663    0.35046    1.000
    Si378    Si       0.10257    0.16782    0.26051    1.000
    Si379    Si       0.07231    0.19128    0.37180    1.000
    N380     N        0.04722    0.24536    0.30680    1.000
    Si381    Si       0.06443    0.03174    0.37575    1.000
    Si382    Si       0.08364    0.08624    0.39813    1.000
    N383     N        0.07503    0.11182    0.43179    1.000
    N384     N        0.08721    0.07077    0.48420    1.000
    N385     N        0.09389    0.04599    0.40680    1.000
    Si386    Si       0.09956    0.03059    0.49436    1.000
    Si387    Si       0.10638    0.10186    0.45830    1.000
    N388     N        0.07849    0.23196    0.36708    1.000
    Si389    Si       0.08720    0.22143    0.48766    1.000
    N390     N        0.05341    0.23521    0.46167    1.000
    N391     N        0.07064    0.18167    0.41583    1.000
    N392     N        0.09255    0.05303    0.59863    1.000
    Si393    Si       0.07135    0.03790    0.56600    1.000
    N394     N        0.10319    0.03492    0.53685    1.000
    N395     N        0.09578    0.13167    0.61378    1.000
    Si396    Si       0.04930    0.07508    0.50644    1.000
    N397     N        0.07373    0.21155    0.57546    1.000
    N398     N        0.07047    0.19163    0.51287    1.000
    Si399    Si       0.05139    0.14279    0.60936    1.000
    Si400    Si       0.09760    0.24259    0.55315    1.000
    N401     N        0.10228    0.25404    0.51048    1.000
    Si402    Si       0.04768    0.18485    0.54957    1.000
    Si403    Si       0.08679    0.08857    0.69601    1.000
    N404     N        0.05489    0.12017    0.69563    1.000
    N405     N        0.07839    0.06146    0.72733    1.000
    Si406    Si       0.08987    0.03661    0.63847    1.000
    N407     N        0.07590    0.07161    0.65838    1.000
    Si408    Si       0.07405    0.21169    0.61794    1.000
    N409     N        0.05546    0.24887    0.63038    1.000
    Si410    Si       0.07010    0.21542    0.73222    1.000
    Si411    Si       0.07062    0.25413    0.67233    1.000
    N412     N        0.06054    0.21551    0.68889    1.000
    N413     N        0.04922    0.07307    0.55162    1.000
    N414     N        0.04921    0.17887    0.63349    1.000
    N415     N        0.07011    0.05028    0.84988    1.000
    Si416    Si       0.08399    0.03104    0.81214    1.000
    N417     N        0.08439    0.11707    0.82773    1.000
    Si418    Si       0.06735    0.09354    0.85863    1.000
    N419     N        0.05324    0.02262    0.78527    1.000
    Si420    Si       0.07357    0.17941    0.97134    1.000
    N421     N        0.06444    0.18229    0.80680    1.000
    Si422    Si       0.09020    0.16007    0.83661    1.000
    Si423    Si       0.09347    0.17171    0.77166    1.000
    N424     N        0.10750    0.21390    0.75691    1.000
    N425     N        0.05793    0.17571    0.74379    1.000
    Si426    Si       0.05498    0.01965    0.95531    1.000
    Si427    Si       0.05748    0.02454    0.88191    1.000
    N428     N        0.08973    0.10648    0.89265    1.000
    N429     N        0.08256    0.04265    0.97930    1.000
    Si430    Si       0.08674    0.25413    0.97521    1.000
    Si431    Si       0.05822    0.13311    0.90744    1.000
    N432     N        0.10179    0.21338    0.98301    1.000
    Si433    Si       0.08664    0.18597    0.89562    1.000
    N434     N        0.07979    0.16482    0.93229    1.000
    N435     N        0.05510    0.16363    0.87306    1.000
    N436     N        0.07721    0.22765    0.89401    1.000
    N437     N        0.08674    0.14799    0.99739    1.000
    N438     N        0.08758    0.32541    0.11018    1.000
    N439     N        0.09286    0.33424    0.03731    1.000
    Si440    Si       0.05811    0.33055    0.01113    1.000
    N441     N        0.06775    0.26645    0.08288    1.000
    N442     N        0.09452    0.26906    0.01450    1.000
    Si443    Si       0.05060    0.30121    0.10475    1.000
    Si444    Si       0.10440    0.47449    0.24505    1.000
    Si445    Si       0.04900    0.48758    0.04958    1.000
    N446     N        0.07882    0.38986    0.09421    1.000
    Si447    Si       0.07325    0.41743    0.06233    1.000
    N448     N        0.06763    0.45862    0.07530    1.000
    Si449    Si       0.08254    0.47832    0.11253    1.000
    Si450    Si       0.10251    0.31613    0.15175    1.000
    Si451    Si       0.06904    0.36466    0.12656    1.000
    N452     N        0.08400    0.35243    0.16710    1.000
    Si453    Si       0.06617    0.27328    0.20237    1.000
    N454     N        0.09767    0.28130    0.17567    1.000
    N455     N        0.04789    0.31055    0.21211    1.000
    N456     N        0.09345    0.44789    0.14158    1.000
    N457     N        0.08864    0.41336    0.20036    1.000
    Si458    Si       0.07287    0.44872    0.18006    1.000
    N459     N        0.05002    0.49692    0.13423    1.000
    Si460    Si       0.09476    0.39743    0.24228    1.000
    N461     N        0.08257    0.48078    0.20704    1.000
    Si462    Si       0.09233    0.31062    0.31986    1.000
    Si463    Si       0.06699    0.37271    0.35377    1.000
    N464     N        0.06625    0.31483    0.28660    1.000
    N465     N        0.06356    0.29503    0.35048    1.000
    N466     N        0.10080    0.35280    0.33109    1.000
    Si467    Si       0.05083    0.27534    0.27337    1.000
    N468     N        0.05860    0.38476    0.26470    1.000
    N469     N        0.08393    0.49385    0.28186    1.000
    N470     N        0.07634    0.41511    0.35681    1.000
    N471     N        0.08801    0.49970    0.35757    1.000
    N472     N        0.06077    0.29819    0.48734    1.000
    Si473    Si       0.07320    0.36867    0.42857    1.000
    N474     N        0.06516    0.34958    0.39117    1.000
    Si475    Si       0.06829    0.30695    0.39147    1.000
    N476     N        0.09899    0.34064    0.45098    1.000
    Si477    Si       0.08290    0.47018    0.49266    1.000
    N478     N        0.05035    0.44259    0.47970    1.000
    Si479    Si       0.04915    0.39960    0.49118    1.000
    N480     N        0.05661    0.45117    0.41248    1.000
    Si481    Si       0.09751    0.44203    0.42407    1.000
    N482     N        0.10364    0.40023    0.41979    1.000
    N483     N        0.10507    0.28883    0.40097    1.000
    Si484    Si       0.06970    0.27792    0.60113    1.000
    Si485    Si       0.06831    0.37276    0.54507    1.000
    N486     N        0.05483    0.26972    0.56012    1.000
    N487     N        0.05390    0.31307    0.61672    1.000
    N488     N        0.05049    0.42122    0.64597    1.000
    N489     N        0.04683    0.33592    0.54842    1.000
    N490     N        0.10614    0.36701    0.56774    1.000
    N491     N        0.08544    0.38200    0.50379    1.000
    N492     N        0.08555    0.46336    0.53540    1.000
    N493     N        0.09517    0.42741    0.59680    1.000
    Si494    Si       0.05298    0.48494    0.55394    1.000
    N495     N        0.07804    0.48662    0.63920    1.000
    N496     N        0.09572    0.30119    0.73597    1.000
    Si497    Si       0.05340    0.29081    0.73286    1.000
    Si498    Si       0.06066    0.37788    0.64357    1.000
    N499     N        0.10302    0.37397    0.64279    1.000
    N500     N        0.05395    0.29081    0.68829    1.000
    N501     N        0.08330    0.45368    0.70227    1.000
    Si502    Si       0.05217    0.45876    0.66855    1.000
    Si503    Si       0.05191    0.45328    0.73215    1.000
    Si504    Si       0.10977    0.46146    0.62530    1.000
    N505     N        0.08739    0.35832    0.77856    1.000
    Si506    Si       0.10034    0.27662    0.83190    1.000
    Si507    Si       0.06224    0.34629    0.86651    1.000
    N508     N        0.05075    0.32427    0.83217    1.000
    N509     N        0.06082    0.26110    0.81961    1.000
    N510     N        0.10473    0.35896    0.86514    1.000
    N511     N        0.05731    0.41586    0.75457    1.000
    Si512    Si       0.08032    0.45662    0.82373    1.000
    Si513    Si       0.09328    0.40098    0.77770    1.000
    N514     N        0.09491    0.41351    0.81991    1.000
    N515     N        0.10038    0.46897    0.78491    1.000
    Si516    Si       0.07300    0.50169    0.77900    1.000
    N517     N        0.05932    0.49811    0.82052    1.000
    Si518    Si       0.08772    0.32106    0.93512    1.000
    Si519    Si       0.05615    0.37614    0.96895    1.000
    N520     N        0.05673    0.32979    0.90539    1.000
    N521     N        0.09382    0.27824    0.93908    1.000
    N522     N        0.07769    0.33885    0.97240    1.000
    Si523    Si       0.09882    0.46215    0.89806    1.000
    N524     N        0.08929    0.41891    0.89300    1.000
    N525     N        0.07701    0.47296    0.93584    1.000
    N526     N        0.07242    0.41394    0.98255    1.000
    N527     N        0.10745    0.46891    0.85540    1.000
    Si528    Si       0.04855    0.34416    0.79419    1.000
    Si529    Si       0.09838    0.57625    0.02653    1.000
    N530     N        0.05961    0.58505    0.04201    1.000
    N531     N        0.07931    0.51942    0.04497    1.000
    N532     N        0.08271    0.55486    0.11632    1.000
    Si533    Si       0.07660    0.64068    0.12510    1.000
    Si534    Si       0.05957    0.67249    0.05923    1.000
    N535     N        0.06230    0.71555    0.04677    1.000
    Si536    Si       0.05992    0.71018    0.00282    1.000
    N537     N        0.05339    0.67145    0.10333    1.000
    N538     N        0.10466    0.66346    0.14857    1.000
    Si539    Si       0.10411    0.65643    0.00736    1.000
    N540     N        0.10583    0.66963    0.05058    1.000
    Si541    Si       0.10545    0.71369    0.06072    1.000
    Si542    Si       0.06783    0.59148    0.18057    1.000
    N543     N        0.05652    0.54731    0.18468    1.000
    Si544    Si       0.09206    0.52172    0.19932    1.000
    Si545    Si       0.05067    0.53913    0.13846    1.000
    N546     N        0.04870    0.61229    0.21361    1.000
    N547     N        0.04976    0.60983    0.14458    1.000
    N548     N        0.10353    0.53613    0.23806    1.000
    N549     N        0.10248    0.74739    0.21314    1.000
    Si550    Si       0.06313    0.65074    0.22987    1.000
    Si551    Si       0.07446    0.72226    0.23331    1.000
    N552     N        0.05272    0.68856    0.21389    1.000
    Si553    Si       0.07256    0.53411    0.26920    1.000
    N554     N        0.07402    0.56987    0.29328    1.000
    N555     N        0.06958    0.57563    0.36837    1.000
    Si556    Si       0.10327    0.60306    0.37197    1.000
    N557     N        0.08452    0.69147    0.40404    1.000
    N558     N        0.05213    0.68164    0.33326    1.000
    N559     N        0.10012    0.64254    0.35951    1.000
    N560     N        0.08149    0.70381    0.27204    1.000
    Si561    Si       0.09412    0.73203    0.30151    1.000
    Si562    Si       0.07303    0.66937    0.29747    1.000
    N563     N        0.05674    0.75138    0.31542    1.000
    N564     N        0.05083    0.64225    0.27252    1.000
    N565     N        0.07263    0.51082    0.48419    1.000
    Si566    Si       0.06171    0.54827    0.40214    1.000
    Si567    Si       0.08517    0.60206    0.44693    1.000
    N568     N        0.05087    0.57613    0.43293    1.000
    N569     N        0.09768    0.52884    0.42156    1.000
    N570     N        0.10050    0.57439    0.47783    1.000
    Si571    Si       0.05510    0.71926    0.41697    1.000
    N572     N        0.07332    0.63706    0.46659    1.000
    Si573    Si       0.06565    0.66621    0.37217    1.000
    N574     N        0.06537    0.75613    0.43809    1.000
    N575     N        0.07250    0.51836    0.57422    1.000
    Si576    Si       0.07570    0.61557    0.57314    1.000
    Si577    Si       0.06711    0.52222    0.61670    1.000
    N578     N        0.09781    0.55328    0.61627    1.000
    N579     N        0.09592    0.58286    0.55267    1.000
    N580     N        0.09764    0.62285    0.60956    1.000
    Si581    Si       0.08135    0.65441    0.50454    1.000
    N582     N        0.08474    0.73734    0.56206    1.000
    N583     N        0.06231    0.64459    0.54386    1.000
    Si584    Si       0.07340    0.72853    0.60290    1.000
    N585     N        0.07283    0.69734    0.49655    1.000
    N586     N        0.10429    0.69574    0.60581    1.000
    N587     N        0.08447    0.56597    0.71203    1.000
    N588     N        0.05441    0.58876    0.65394    1.000
    Si589    Si       0.09644    0.59123    0.63741    1.000
    Si590    Si       0.04589    0.56906    0.69250    1.000
    N591     N        0.05375    0.71726    0.72207    1.000
    Si592    Si       0.09024    0.69651    0.71216    1.000
    Si593    Si       0.09888    0.64048    0.73767    1.000
    N594     N        0.07780    0.65424    0.70042    1.000
    Si595    Si       0.10655    0.54609    0.57322    1.000
    N596     N        0.08184    0.61226    0.76704    1.000
    Si597    Si       0.08799    0.62072    0.80931    1.000
    N598     N        0.09210    0.53994    0.77953    1.000
    Si599    Si       0.07436    0.56972    0.75465    1.000
    Si600    Si       0.08376    0.69350    0.78732    1.000
    N601     N        0.08283    0.73570    0.79920    1.000
    Si602    Si       0.08611    0.74211    0.84240    1.000
    N603     N        0.07857    0.70244    0.85983    1.000
    N604     N        0.10126    0.66223    0.81405    1.000
    N605     N        0.10657    0.68159    0.74993    1.000
    Si606    Si       0.05695    0.54758    0.90188    1.000
    N607     N        0.09841    0.53807    0.91172    1.000
    N608     N        0.08737    0.55912    0.98563    1.000
    Si609    Si       0.07130    0.62530    0.89752    1.000
    N610     N        0.05787    0.58636    0.87964    1.000
    N611     N        0.07286    0.62574    0.93994    1.000
    Si612    Si       0.07740    0.74154    0.90828    1.000
    N613     N        0.08904    0.73419    0.98078    1.000
    N614     N        0.04762    0.62362    0.82554    1.000
    N615     N        0.06507    0.66764    0.99653    1.000
    N616     N        0.08834    0.84492    0.06325    1.000
    N617     N        0.06623    0.78065    0.07325    1.000
    Si618    Si       0.09542    0.87192    0.02757    1.000
    Si619    Si       0.09495    0.76896    0.10712    1.000
    Si620    Si       0.05165    0.82118    0.06818    1.000
    N621     N        0.10384    0.81792    0.19525    1.000
    Si622    Si       0.09976    0.98032    0.08321    1.000
    N623     N        0.06538    0.96792    0.06041    1.000
    Si624    Si       0.06355    0.93470    0.02883    1.000
    N625     N        0.05420    0.90290    0.12047    1.000
    N626     N        0.08966    0.96657    0.12339    1.000
    Si627    Si       0.07217    0.82569    0.22634    1.000
    Si628    Si       0.06120    0.86208    0.13587    1.000
    N629     N        0.07774    0.86808    0.23482    1.000
    N630     N        0.07564    0.77328    0.14672    1.000
    N631     N        0.10459    0.85533    0.13628    1.000
    Si632    Si       0.10300    0.77588    0.18023    1.000
    Si633    Si       0.07230    0.93437    0.14464    1.000
    N634     N        0.08895    0.91964    0.18061    1.000
    Si635    Si       0.05816    0.99535    0.13690    1.000
    Si636    Si       0.06056    0.89406    0.20168    1.000
    N637     N        0.09236    0.98308    0.22750    1.000
    N638     N        0.10321    0.91484    0.02813    1.000
    N639     N        0.08978    0.86694    0.29967    1.000
    N640     N        0.06208    0.81108    0.26706    1.000
    Si641    Si       0.09583    0.87677    0.34182    1.000
    Si642    Si       0.05368    0.84900    0.28640    1.000
    N643     N        0.06231    0.88185    0.37017    1.000
    Si644    Si       0.08187    0.94246    0.32164    1.000
    N645     N        0.06322    0.92898    0.28283    1.000
    Si646    Si       0.09359    0.95516    0.26168    1.000
    N647     N        0.09950    0.97699    0.29962    1.000
    N648     N        0.05701    0.95074    0.35595    1.000
    Si649    Si       0.09984    0.80700    0.38497    1.000
    N650     N        0.05466    0.80675    0.38428    1.000
    Si651    Si       0.09524    0.78430    0.45665    1.000
    N652     N        0.06060    0.81045    0.46636    1.000
    Si653    Si       0.08155    0.84406    0.48469    1.000
    N654     N        0.08384    0.87777    0.45672    1.000
    N655     N        0.06760    0.99793    0.49396    1.000
    Si656    Si       0.04919    0.90165    0.46022    1.000
    Si657    Si       0.06533    0.92309    0.38918    1.000
    N658     N        0.05963    0.92229    0.49857    1.000
    N659     N        0.07227    0.83632    0.58946    1.000
    N660     N        0.06746    0.85409    0.52419    1.000
    Si661    Si       0.09345    0.85852    0.55990    1.000
    Si662    Si       0.09457    0.79745    0.59294    1.000
    Si663    Si       0.07982    0.77048    0.53515    1.000
    N664     N        0.07303    0.77044    0.61670    1.000
    N665     N        0.10153    0.76335    0.49657    1.000
    N666     N        0.08324    0.90108    0.56664    1.000
    Si667    Si       0.07362    0.96372    0.56912    1.000
    N668     N        0.08302    0.95302    0.61022    1.000
    Si669    Si       0.08260    0.90895    0.60862    1.000
    N670     N        0.04479    0.89341    0.62508    1.000
    Si671    Si       0.08632    0.95514    0.49956    1.000
    N672     N        0.10644    0.96166    0.54024    1.000
    N673     N        0.05196    0.00120    0.56610    1.000
    N674     N        0.05418    0.77647    0.68356    1.000
    N675     N        0.09864    0.84089    0.66838    1.000
    Si676    Si       0.06383    0.87487    0.73172    1.000
    Si677    Si       0.06269    0.81912    0.68178    1.000
    N678     N        0.09503    0.76879    0.73820    1.000
    Si679    Si       0.05438    0.76049    0.72553    1.000
    N680     N        0.04966    0.83595    0.71880    1.000
    N681     N        0.08032    0.90082    0.70070    1.000
    N682     N        0.10173    0.96226    0.68010    1.000
    Si683    Si       0.07192    0.96763    0.64972    1.000
    Si684    Si       0.09595    0.93887    0.71787    1.000
    N685     N        0.05887    0.00648    0.63718    1.000
    N686     N        0.06944    0.95861    0.74296    1.000
    N687     N        0.05816    0.87391    0.80549    1.000
    Si688    Si       0.09481    0.85335    0.79253    1.000
    N689     N        0.09858    0.81013    0.80532    1.000
    N690     N        0.10089    0.86687    0.75249    1.000
    Si691    Si       0.10081    0.77130    0.78227    1.000
    N692     N        0.06316    0.76447    0.87096    1.000
    Si693    Si       0.06338    0.91351    0.82629    1.000
    N694     N        0.05753    0.90355    0.86837    1.000
    N695     N        0.10160    0.93200    0.82105    1.000
    Si696    Si       0.06741    0.00066    0.74818    1.000
    N697     N        0.09686    0.00662    0.89161    1.000
    N698     N        0.08835    0.82968    0.87391    1.000
    N699     N        0.05963    0.86580    0.92437    1.000
    Si700    Si       0.08041    0.87104    0.88540    1.000
    Si701    Si       0.08392    0.77714    0.97388    1.000
    Si702    Si       0.06055    0.80213    0.89385    1.000
    Si703    Si       0.08914    0.87538    0.95686    1.000
    N704     N        0.07443    0.78053    0.93222    1.000
    Si705    Si       0.05977    0.94737    0.95186    1.000
    N706     N        0.09360    0.91750    0.95259    1.000
    N707     N        0.07991    0.98626    0.94861    1.000
    N708     N        0.07231    0.85890    0.99281    1.000
    Si709    Si       0.13046    0.08953    0.04575    1.000
    Si710    Si       0.14187    0.03686    0.09753    1.000
    N711     N        0.15223    0.05391    0.05885    1.000
    N712     N        0.11249    0.09504    0.00831    1.000
    N713     N        0.15232    0.12560    0.05511    1.000
    Si714    Si       0.14928    0.13912    0.09538    1.000
    N715     N        0.12512    0.22898    0.06310    1.000
    N716     N        0.16374    0.25915    0.14976    1.000
    N717     N        0.13691    0.05963    0.13559    1.000
    N718     N        0.14766    0.02963    0.21066    1.000
    Si719    Si       0.11918    0.06082    0.21897    1.000
    N720     N        0.11705    0.08797    0.18578    1.000
    Si721    Si       0.15265    0.09137    0.16026    1.000
    Si722    Si       0.10851    0.17861    0.13668    1.000
    N723     N        0.14294    0.17241    0.16031    1.000
    Si724    Si       0.13862    0.18543    0.20217    1.000
    Si725    Si       0.11592    0.23949    0.23991    1.000
    Si726    Si       0.12334    0.24684    0.16295    1.000
    N727     N        0.12066    0.22485    0.19938    1.000
    N728     N        0.10852    0.22283    0.13103    1.000
    N729     N        0.16732    0.12094    0.12956    1.000
    N730     N        0.15271    0.02730    0.31561    1.000
    N731     N        0.12528    0.06990    0.26083    1.000
    Si732    Si       0.16044    0.05719    0.28260    1.000
    Si733    Si       0.16067    0.13277    0.30072    1.000
    Si734    Si       0.16468    0.01616    0.35616    1.000
    N735     N        0.12484    0.13521    0.27899    1.000
    N736     N        0.13007    0.20271    0.26124    1.000
    N737     N        0.15672    0.14903    0.33917    1.000
    N738     N        0.14840    0.23413    0.36324    1.000
    Si739    Si       0.12536    0.14666    0.36694    1.000
    N740     N        0.12824    0.01479    0.46439    1.000
    Si741    Si       0.15572    0.08597    0.39778    1.000
    Si742    Si       0.13183    0.03648    0.42489    1.000
    N743     N        0.11916    0.10574    0.38243    1.000
    N744     N        0.14228    0.07790    0.44185    1.000
    N745     N        0.15513    0.04397    0.38819    1.000
    Si746    Si       0.16388    0.22028    0.46225    1.000
    N747     N        0.13358    0.17489    0.39903    1.000
    Si748    Si       0.11112    0.17390    0.43697    1.000
    Si749    Si       0.16331    0.14911    0.48405    1.000
    N750     N        0.12555    0.14120    0.46490    1.000
    N751     N        0.11996    0.20852    0.46221    1.000
    Si752    Si       0.13920    0.05707    0.54645    1.000
    N753     N        0.13112    0.09606    0.56296    1.000
    Si754    Si       0.11131    0.09308    0.60250    1.000
    Si755    Si       0.15982    0.12808    0.55999    1.000
    N756     N        0.15851    0.06470    0.51133    1.000
    N757     N        0.15749    0.14760    0.65080    1.000
    N758     N        0.14978    0.16282    0.58573    1.000
    N759     N        0.13647    0.22373    0.55710    1.000
    N760     N        0.15538    0.15365    0.52594    1.000
    Si761    Si       0.16011    0.18846    0.55149    1.000
    Si762    Si       0.14957    0.25322    0.58506    1.000
    N763     N        0.12536    0.01993    0.65425    1.000
    N764     N        0.14825    0.08828    0.62585    1.000
    N765     N        0.12527    0.10686    0.69318    1.000
    Si766    Si       0.13752    0.11853    0.73262    1.000
    Si767    Si       0.15953    0.10565    0.66518    1.000
    N768     N        0.14831    0.07850    0.74453    1.000
    N769     N        0.11405    0.19966    0.63232    1.000
    N770     N        0.16050    0.21139    0.68776    1.000
    Si771    Si       0.13829    0.22972    0.65333    1.000
    Si772    Si       0.12803    0.16041    0.62170    1.000
    N773     N        0.14913    0.11202    0.81862    1.000
    Si774    Si       0.11185    0.10507    0.79692    1.000
    Si775    Si       0.12710    0.02252    0.86492    1.000
    Si776    Si       0.11456    0.05049    0.75105    1.000
    N777     N        0.10882    0.13168    0.76059    1.000
    N778     N        0.13742    0.06458    0.87165    1.000
    Si779    Si       0.12813    0.21653    0.79595    1.000
    N780     N        0.12459    0.23904    0.83349    1.000
    N781     N        0.12385    0.17418    0.80392    1.000
    Si782    Si       0.15945    0.24633    0.86073    1.000
    Si783    Si       0.16068    0.15277    0.81122    1.000
    N784     N        0.16672    0.11710    0.88962    1.000
    N785     N        0.16270    0.05126    0.99279    1.000
    Si786    Si       0.12088    0.06105    0.97812    1.000
    N787     N        0.12586    0.09914    0.94696    1.000
    Si788    Si       0.11966    0.12691    0.97945    1.000
    Si789    Si       0.13053    0.09106    0.90554    1.000
    N790     N        0.13564    0.03729    0.93872    1.000
    Si791    Si       0.15778    0.15740    0.88189    1.000
    N792     N        0.14531    0.24338    0.90235    1.000
    N793     N        0.11650    0.16926    0.87135    1.000
    N794     N        0.15582    0.14666    0.98809    1.000
    N795     N        0.10481    0.06383    0.79061    1.000
    N796     N        0.14427    0.36309    0.08757    1.000
    N797     N        0.13980    0.30055    0.06051    1.000
    Si798    Si       0.11752    0.30290    0.02186    1.000
    Si799    Si       0.11283    0.33370    0.07681    1.000
    Si800    Si       0.15664    0.25973    0.06180    1.000
    N801     N        0.14631    0.43330    0.09606    1.000
    Si802    Si       0.14405    0.40255    0.06599    1.000
    N803     N        0.12026    0.49777    0.09810    1.000
    Si804    Si       0.15786    0.47458    0.10460    1.000
    N805     N        0.15688    0.50116    0.04607    1.000
    N806     N        0.11047    0.41034    0.04067    1.000
    Si807    Si       0.11342    0.41802    0.99724    1.000
    Si808    Si       0.15893    0.36248    0.12988    1.000
    N809     N        0.12984    0.37428    0.22581    1.000
    N810     N        0.14394    0.32323    0.14338    1.000
    Si811    Si       0.11217    0.38104    0.18708    1.000
    N812     N        0.14481    0.48900    0.24566    1.000
    N813     N        0.13642    0.39266    0.15425    1.000
    Si814    Si       0.13098    0.43109    0.13669    1.000
    N815     N        0.16114    0.46180    0.14732    1.000
    N816     N        0.12296    0.28214    0.33217    1.000
    Si817    Si       0.14177    0.37028    0.32896    1.000
    Si818    Si       0.16215    0.37160    0.25556    1.000
    Si819    Si       0.16533    0.26885    0.34294    1.000
    N820     N        0.14566    0.27104    0.24390    1.000
    N821     N        0.14499    0.38799    0.29211    1.000
    N822     N        0.12553    0.45495    0.32121    1.000
    Si823    Si       0.14099    0.43126    0.28738    1.000
    Si824    Si       0.11542    0.43364    0.35890    1.000
    N825     N        0.14448    0.40020    0.36283    1.000
    N826     N        0.10936    0.43476    0.25973    1.000
    Si827    Si       0.10518    0.49304    0.31916    1.000
    Si828    Si       0.11107    0.25938    0.36752    1.000
    Si829    Si       0.15139    0.47995    0.46368    1.000
    Si830    Si       0.11626    0.35806    0.48675    1.000
    N831     N        0.14314    0.29357    0.46145    1.000
    N832     N        0.14967    0.34732    0.40587    1.000
    Si833    Si       0.12677    0.31527    0.42794    1.000
    N834     N        0.15422    0.37734    0.47703    1.000
    Si835    Si       0.10904    0.29179    0.49128    1.000
    Si836    Si       0.14230    0.38890    0.40536    1.000
    N837     N        0.12395    0.45942    0.39249    1.000
    N838     N        0.11285    0.45957    0.46126    1.000
    Si839    Si       0.11632    0.50407    0.39017    1.000
    Si840    Si       0.13707    0.34249    0.55370    1.000
    N841     N        0.12201    0.32534    0.51607    1.000
    N842     N        0.15882    0.32460    0.58519    1.000
    N843     N        0.11003    0.27115    0.58837    1.000
    N844     N        0.15890    0.40139    0.60077    1.000
    N845     N        0.12819    0.47951    0.58995    1.000
    N846     N        0.14896    0.43088    0.54360    1.000
    Si847    Si       0.11564    0.44812    0.56120    1.000
    Si848    Si       0.11574    0.39074    0.60180    1.000
    Si849    Si       0.12403    0.28954    0.70262    1.000
    Si850    Si       0.13281    0.36741    0.67173    1.000
    N851     N        0.12711    0.32644    0.68187    1.000
    N852     N        0.15977    0.27550    0.72186    1.000
    N853     N        0.14985    0.34314    0.74842    1.000
    Si854    Si       0.15242    0.38521    0.73699    1.000
    N855     N        0.14384    0.46519    0.72554    1.000
    N856     N        0.13996    0.45447    0.65541    1.000
    Si857    Si       0.12334    0.44072    0.69651    1.000
    N858     N        0.12770    0.39790    0.70356    1.000
    Si859    Si       0.16252    0.50423    0.58186    1.000
    Si860    Si       0.16680    0.50206    0.71482    1.000
    N861     N        0.11270    0.25960    0.67233    1.000
    N862     N        0.12199    0.29467    0.79829    1.000
    Si863    Si       0.11255    0.32614    0.76807    1.000
    Si864    Si       0.16272    0.27596    0.79679    1.000
    N865     N        0.10656    0.29233    0.87121    1.000
    Si866    Si       0.14708    0.48095    0.83688    1.000
    N867     N        0.13776    0.40917    0.77027    1.000
    Si868    Si       0.13513    0.45437    0.76543    1.000
    N869     N        0.15322    0.40595    0.84838    1.000
    Si870    Si       0.11108    0.40011    0.85818    1.000
    N871     N        0.16361    0.45780    0.80017    1.000
    Si872    Si       0.16380    0.41601    0.80727    1.000
    Si873    Si       0.11784    0.47889    0.95642    1.000
    Si874    Si       0.10454    0.25952    0.90159    1.000
    Si875    Si       0.12959    0.32887    0.88309    1.000
    N876     N        0.12708    0.33508    0.92769    1.000
    Si877    Si       0.15014    0.35013    0.96113    1.000
    N878     N        0.13533    0.38905    0.97577    1.000
    N879     N        0.13333    0.45777    0.99179    1.000
    N880     N        0.13632    0.46307    0.92112    1.000
    N881     N        0.14681    0.31846    0.99289    1.000
    N882     N        0.12638    0.56348    0.06047    1.000
    Si883    Si       0.11346    0.57725    0.09939    1.000
    Si884    Si       0.12002    0.51988    0.06105    1.000
    N885     N        0.11288    0.61524    0.00939    1.000
    Si886    Si       0.16555    0.57940    0.04609    1.000
    N887     N        0.10847    0.65071    0.22449    1.000
    N888     N        0.16544    0.62320    0.05490    1.000
    Si889    Si       0.13400    0.64472    0.07482    1.000
    N890     N        0.15494    0.67343    0.09957    1.000
    N891     N        0.13349    0.73598    0.03746    1.000
    N892     N        0.11044    0.72755    0.10482    1.000
    N893     N        0.11009    0.59617    0.17836    1.000
    N894     N        0.15106    0.57318    0.12306    1.000
    N895     N        0.12274    0.52942    0.17232    1.000
    Si896    Si       0.14086    0.56773    0.16598    1.000
    Si897    Si       0.12885    0.69601    0.12847    1.000
    N898     N        0.15834    0.70567    0.16016    1.000
    Si899    Si       0.12186    0.63962    0.18287    1.000
    N900     N        0.10499    0.62065    0.09748    1.000
    N901     N        0.13437    0.52430    0.30724    1.000
    N902     N        0.13388    0.58428    0.34917    1.000
    Si903    Si       0.14058    0.52815    0.26356    1.000
    Si904    Si       0.15308    0.54691    0.33883    1.000
    Si905    Si       0.13993    0.73553    0.35444    1.000
    Si906    Si       0.12264    0.66864    0.33596    1.000
    Si907    Si       0.13894    0.64793    0.26010    1.000
    N908     N        0.11312    0.65311    0.29585    1.000
    N909     N        0.11018    0.70983    0.33513    1.000
    N910     N        0.12128    0.75559    0.27734    1.000
    N911     N        0.15234    0.52132    0.37410    1.000
    N912     N        0.11414    0.60407    0.41425    1.000
    N913     N        0.14066    0.51602    0.48739    1.000
    Si914    Si       0.15759    0.61734    0.41722    1.000
    Si915    Si       0.10580    0.53339    0.46608    1.000
    N916     N        0.15196    0.71699    0.39069    1.000
    Si917    Si       0.12326    0.69599    0.42120    1.000
    N918     N        0.13100    0.71739    0.45776    1.000
    N919     N        0.14877    0.66030    0.41819    1.000
    N920     N        0.16461    0.67180    0.34396    1.000
    Si921    Si       0.11025    0.72024    0.49539    1.000
    N922     N        0.14663    0.53991    0.56265    1.000
    Si923    Si       0.11796    0.59265    0.51309    1.000
    N924     N        0.15737    0.57767    0.50616    1.000
    Si925    Si       0.15563    0.69720    0.67700    1.000
    N926     N        0.12070    0.63593    0.51020    1.000
    Si927    Si       0.11831    0.70998    0.56759    1.000
    Si928    Si       0.14693    0.66044    0.53256    1.000
    N929     N        0.13121    0.70045    0.52802    1.000
    N930     N        0.14891    0.65283    0.57538    1.000
    Si931    Si       0.12564    0.65799    0.61242    1.000
    N932     N        0.15898    0.72443    0.57494    1.000
    N933     N        0.12004    0.72077    0.69224    1.000
    Si934    Si       0.16553    0.53745    0.52360    1.000
    N935     N        0.13326    0.61880    0.72397    1.000
    N936     N        0.15159    0.54389    0.71640    1.000
    N937     N        0.13162    0.59258    0.66500    1.000
    Si938    Si       0.12544    0.57821    0.70640    1.000
    N939     N        0.14544    0.66131    0.65135    1.000
    Si940    Si       0.12721    0.54996    0.80310    1.000
    N941     N        0.14907    0.52388    0.82945    1.000
    Si942    Si       0.13715    0.60389    0.85962    1.000
    N943     N        0.15074    0.57138    0.77443    1.000
    N944     N        0.11533    0.58835    0.82477    1.000
    N945     N        0.16239    0.63146    0.83386    1.000
    N946     N        0.12787    0.75053    0.85314    1.000
    Si947    Si       0.10896    0.67243    0.85564    1.000
    N948     N        0.14661    0.68998    0.86351    1.000
    N949     N        0.13534    0.51939    0.96102    1.000
    Si950    Si       0.14554    0.60028    0.98542    1.000
    N951     N        0.14014    0.58322    0.94586    1.000
    Si952    Si       0.11116    0.55143    0.94954    1.000
    N953     N        0.16220    0.57744    0.88121    1.000
    Si954    Si       0.12303    0.71684    0.96073    1.000
    N955     N        0.10754    0.63434    0.87750    1.000
    N956     N        0.12988    0.67940    0.98153    1.000
    Si957    Si       0.14547    0.72569    0.88597    1.000
    N958     N        0.11652    0.72297    0.91769    1.000
    N959     N        0.16223    0.73575    0.97125    1.000
    N960     N        0.12528    0.79932    0.10295    1.000
    N961     N        0.13602    0.85618    0.01471    1.000
    Si962    Si       0.11652    0.84136    0.09576    1.000
    N963     N        0.15087    0.86056    0.08279    1.000
    Si964    Si       0.14990    0.75991    0.00593    1.000
    Si965    Si       0.14192    0.93313    0.03483    1.000
    N966     N        0.13609    0.96518    0.06590    1.000
    N967     N        0.14985    0.95924    0.19381    1.000
    N968     N        0.14313    0.77378    0.16332    1.000
    Si969    Si       0.12843    0.84779    0.17094    1.000
    Si970    Si       0.16119    0.79911    0.12953    1.000
    Si971    Si       0.12632    0.92302    0.20069    1.000
    Si972    Si       0.13743    0.75799    0.23688    1.000
    N973     N        0.14190    0.88351    0.19452    1.000
    Si974    Si       0.13391    0.99023    0.22207    1.000
    N975     N        0.11865    0.92302    0.24576    1.000
    Si976    Si       0.15209    0.83084    0.34958    1.000
    N977     N        0.14773    0.86583    0.25990    1.000
    N978     N        0.15418    0.81239    0.31171    1.000
    N979     N        0.11030    0.83996    0.36066    1.000
    Si980    Si       0.15838    0.77303    0.29513    1.000
    Si981    Si       0.10704    0.88293    0.26258    1.000
    N982     N        0.12367    0.77166    0.36774    1.000
    Si983    Si       0.14257    0.97385    0.46014    1.000
    N984     N        0.15365    0.97505    0.41880    1.000
    N985     N        0.15391    0.97589    0.25863    1.000
    Si986    Si       0.15519    0.90919    0.33310    1.000
    N987     N        0.13132    0.98808    0.35988    1.000
    Si988    Si       0.15987    0.93295    0.26063    1.000
    N989     N        0.11274    0.91593    0.33395    1.000
    Si990    Si       0.11375    0.00798    0.32329    1.000
    N991     N        0.10548    0.92797    0.40301    1.000
    N992     N        0.11968    0.82429    0.48609    1.000
    N993     N        0.12110    0.80430    0.42554    1.000
    Si994    Si       0.15198    0.78228    0.40164    1.000
    Si995    Si       0.14072    0.83819    0.44942    1.000
    N996     N        0.14992    0.88212    0.44128    1.000
    Si997    Si       0.11361    0.90849    0.44227    1.000
    N998     N        0.11289    0.94251    0.46943    1.000
    Si999    Si       0.13538    0.95328    0.38585    1.000
    Si1000   Si       0.16865    0.84919    0.29323    1.000
    N1001    N        0.13321    0.80720    0.60829    1.000
    N1002    N        0.13588    0.85932    0.56106    1.000
    Si1003   Si       0.13655    0.79215    0.51285    1.000
    Si1004   Si       0.15169    0.81937    0.57071    1.000
    N1005    N        0.11049    0.79858    0.55121    1.000
    Si1006   Si       0.14681    0.95072    0.54747    1.000
    N1007    N        0.15672    0.92178    0.58371    1.000
    N1008    N        0.16172    0.91817    0.52173    1.000
    Si1009   Si       0.16594    0.88915    0.55535    1.000
    N1010    N        0.13538    0.78801    0.67530    1.000
    Si1011   Si       0.13197    0.82011    0.64828    1.000
    Si1012   Si       0.11147    0.88359    0.67373    1.000
    N1013    N        0.14504    0.88026    0.70200    1.000
    Si1014   Si       0.12279    0.76084    0.70620    1.000
    N1015    N        0.13031    0.93127    0.74256    1.000
    N1016    N        0.15924    0.98456    0.71297    1.000
    Si1017   Si       0.13595    0.88737    0.74184    1.000
    N1018    N        0.16004    0.96031    0.64394    1.000
    Si1019   Si       0.13818    0.98435    0.67428    1.000
    N1020    N        0.11738    0.90089    0.63466    1.000
    Si1021   Si       0.15733    0.91883    0.62727    1.000
    N1022    N        0.12331    0.86628    0.82619    1.000
    Si1023   Si       0.11940    0.82589    0.84299    1.000
    N1024    N        0.15712    0.80859    0.85230    1.000
    Si1025   Si       0.15947    0.76976    0.83052    1.000
    N1026    N        0.14402    0.76338    0.79019    1.000
    Si1027   Si       0.13156    0.96469    0.82339    1.000
    Si1028   Si       0.12782    0.90498    0.84694    1.000
    N1029    N        0.15246    0.94005    0.85513    1.000
    N1030    N        0.16120    0.96667    0.79053    1.000
    N1031    N        0.11478    0.00422    0.82697    1.000
    Si1032   Si       0.14022    0.97208    0.75099    1.000
    N1033    N        0.11199    0.00694    0.75237    1.000
    N1034    N        0.12415    0.85154    0.94630    1.000
    Si1035   Si       0.13930    0.83122    0.97992    1.000
    Si1036   Si       0.14991    0.87086    0.91763    1.000
    N1037    N        0.12291    0.79165    0.99156    1.000
    N1038    N        0.14936    0.95295    0.99470    1.000
    N1039    N        0.16242    0.90454    0.94246    1.000
    Si1040   Si       0.11550    0.99944    0.92933    1.000
    Si1041   Si       0.13338    0.93552    0.95825    1.000
    N1042    N        0.12205    0.88813    0.88713    1.000
    N1043    N        0.14233    0.96481    0.92605    1.000
    Si1044   Si       0.18098    0.03903    0.02892    1.000
    N1045    N        0.21673    0.06098    0.03565    1.000
    N1046    N        0.17611    0.01034    0.10162    1.000
    N1047    N        0.21167    0.13155    0.02834    1.000
    N1048    N        0.18950    0.24577    0.08578    1.000
    N1049    N        0.18860    0.19143    0.03370    1.000
    Si1050   Si       0.19697    0.20369    0.07608    1.000
    Si1051   Si       0.18946    0.22275    0.00482    1.000
    N1052    N        0.17266    0.17713    0.10032    1.000
    Si1053   Si       0.17172    0.15052    0.02687    1.000
    Si1054   Si       0.20814    0.02252    0.12852    1.000
    N1055    N        0.18520    0.08507    0.18902    1.000
    Si1056   Si       0.19112    0.04406    0.20825    1.000
    N1057    N        0.19973    0.01995    0.17176    1.000
    Si1058   Si       0.17906    0.16051    0.14114    1.000
    N1059    N        0.21291    0.16994    0.16322    1.000
    Si1060   Si       0.19939    0.25703    0.12743    1.000
    N1061    N        0.17719    0.18447    0.21854    1.000
    Si1062   Si       0.21858    0.17520    0.20632    1.000
    N1063    N        0.17683    0.09184    0.30526    1.000
    N1064    N        0.19175    0.03952    0.25656    1.000
    Si1065   Si       0.21955    0.08852    0.31763    1.000
    N1066    N        0.19084    0.15268    0.27941    1.000
    N1067    N        0.20073    0.22012    0.27492    1.000
    Si1068   Si       0.17484    0.19002    0.26208    1.000
    Si1069   Si       0.19492    0.14065    0.35989    1.000
    Si1070   Si       0.21795    0.25639    0.28628    1.000
    Si1071   Si       0.17329    0.07640    0.47280    1.000
    N1072    N        0.18964    0.11644    0.47966    1.000
    N1073    N        0.21144    0.06242    0.46046    1.000
    N1074    N        0.18709    0.11194    0.38966    1.000
    N1075    N        0.17555    0.23158    0.42151    1.000
    N1076    N        0.18658    0.18259    0.46766    1.000
    N1077    N        0.18203    0.24830    0.48958    1.000
    N1078    N        0.20060    0.17924    0.37755    1.000
    Si1079   Si       0.16531    0.20339    0.38936    1.000
    N1080    N        0.19530    0.11111    0.57786    1.000
    Si1081   Si       0.18026    0.07472    0.59860    1.000
    Si1082   Si       0.19516    0.00999    0.57211    1.000
    N1083    N        0.20090    0.20583    0.54402    1.000
    Si1084   Si       0.20055    0.24590    0.52797    1.000
    N1085    N        0.21282    0.05919    0.62298    1.000
    N1086    N        0.20106    0.01470    0.66871    1.000
    Si1087   Si       0.21334    0.05649    0.66528    1.000
    N1088    N        0.18517    0.07934    0.68885    1.000
    Si1089   Si       0.18943    0.07113    0.73206    1.000
    Si1090   Si       0.17463    0.16931    0.68345    1.000
    N1091    N        0.16592    0.24464    0.62388    1.000
    N1092    N        0.21570    0.17882    0.67354    1.000
    Si1093   Si       0.18332    0.24137    0.70892    1.000
    Si1094   Si       0.20815    0.25359    0.63501    1.000
    N1095    N        0.20829    0.21695    0.73561    1.000
    N1096    N        0.17499    0.14239    0.71994    1.000
    N1097    N        0.16416    0.04024    0.57762    1.000
    N1098    N        0.19943    0.03021    0.74360    1.000
    N1099    N        0.20398    0.06950    0.84995    1.000
    N1100    N        0.21334    0.09593    0.75810    1.000
    Si1101   Si       0.19794    0.02734    0.86035    1.000
    N1102    N        0.19947    0.01139    0.81973    1.000
    Si1103   Si       0.16636    0.09097    0.85261    1.000
    Si1104   Si       0.21437    0.19293    0.84513    1.000
    Si1105   Si       0.20215    0.20418    0.77488    1.000
    N1106    N        0.18748    0.16279    0.78064    1.000
    N1107    N        0.18167    0.16570    0.84625    1.000
    N1108    N        0.19692    0.22623    0.86456    1.000
    Si1109   Si       0.20447    0.13656    0.75014    1.000
    N1110    N        0.16900    0.23198    0.78786    1.000
    N1111    N        0.19420    0.07159    0.92899    1.000
    Si1112   Si       0.20444    0.10867    0.91331    1.000
    Si1113   Si       0.17754    0.04138    0.95291    1.000
    N1114    N        0.17018    0.21074    0.96887    1.000
    Si1115   Si       0.17544    0.16556    0.95535    1.000
    N1116    N        0.16641    0.18016    0.91599    1.000
    N1117    N        0.20732    0.13869    0.94505    1.000
    N1118    N        0.21039    0.24159    0.92523    1.000
    Si1119   Si       0.17191    0.22188    0.92731    1.000
    Si1120   Si       0.22006    0.01998    0.78262    1.000
    N1121    N        0.20130    0.32445    0.03622    1.000
    N1122    N        0.20579    0.35218    0.10058    1.000
    Si1123   Si       0.18053    0.35027    0.06460    1.000
    Si1124   Si       0.18277    0.29839    0.00621    1.000
    N1125    N        0.17200    0.25947    0.02073    1.000
    N1126    N        0.18330    0.39110    0.04700    1.000
    N1127    N        0.20078    0.45384    0.03039    1.000
    N1128    N        0.19693    0.49157    0.09859    1.000
    Si1129   Si       0.21883    0.41744    0.04528    1.000
    Si1130   Si       0.16596    0.47396    0.01350    1.000
    Si1131   Si       0.17316    0.29981    0.16496    1.000
    N1132    N        0.21505    0.29700    0.14807    1.000
    Si1133   Si       0.20293    0.34966    0.20196    1.000
    N1134    N        0.19515    0.35851    0.16199    1.000
    N1135    N        0.17723    0.31403    0.20440    1.000
    N1136    N        0.19893    0.37958    0.23275    1.000
    Si1137   Si       0.22189    0.33703    0.13659    1.000
    Si1138   Si       0.17843    0.29883    0.24309    1.000
    Si1139   Si       0.22370    0.50434    0.13025    1.000
    N1140    N        0.19659    0.44359    0.21062    1.000
    Si1141   Si       0.19803    0.45700    0.16948    1.000
    Si1142   Si       0.18157    0.46784    0.24382    1.000
    N1143    N        0.21228    0.49823    0.17647    1.000
    Si1144   Si       0.22306    0.41368    0.22626    1.000
    Si1145   Si       0.19529    0.32039    0.30562    1.000
    N1146    N        0.18946    0.27666    0.30978    1.000
    N1147    N        0.17232    0.34077    0.33571    1.000
    N1148    N        0.17280    0.33172    0.26960    1.000
    N1149    N        0.21937    0.28572    0.25298    1.000
    N1150    N        0.18177    0.43909    0.27792    1.000
    N1151    N        0.21532    0.49564    0.24736    1.000
    Si1152   Si       0.22096    0.42906    0.29660    1.000
    N1153    N        0.17991    0.28992    0.37778    1.000
    Si1154   Si       0.19913    0.26442    0.40637    1.000
    N1155    N        0.21874    0.34759    0.38419    1.000
    Si1156   Si       0.17964    0.33318    0.37727    1.000
    Si1157   Si       0.18517    0.28847    0.46914    1.000
    N1158    N        0.21391    0.29274    0.43634    1.000
    N1159    N        0.20341    0.47084    0.37604    1.000
    N1160    N        0.21455    0.39040    0.48113    1.000
    Si1161   Si       0.17833    0.41083    0.46629    1.000
    N1162    N        0.17221    0.48942    0.42808    1.000
    Si1163   Si       0.17170    0.45287    0.40071    1.000
    N1164    N        0.17088    0.41616    0.42362    1.000
    N1165    N        0.17553    0.44906    0.48470    1.000
    N1166    N        0.20071    0.31888    0.49590    1.000
    Si1167   Si       0.19645    0.30438    0.58202    1.000
    N1168    N        0.17163    0.36803    0.53808    1.000
    N1169    N        0.18258    0.26849    0.56247    1.000
    N1170    N        0.21770    0.29206    0.61748    1.000
    Si1171   Si       0.18767    0.36060    0.50005    1.000
    Si1172   Si       0.18016    0.46895    0.64982    1.000
    N1173    N        0.21709    0.38603    0.59634    1.000
    Si1174   Si       0.18061    0.40197    0.56427    1.000
    N1175    N        0.21194    0.42663    0.54316    1.000
    N1176    N        0.18223    0.49348    0.54148    1.000
    Si1177   Si       0.18075    0.45268    0.52624    1.000
    N1178    N        0.18654    0.49897    0.61678    1.000
    N1179    N        0.20672    0.43405    0.64492    1.000
    Si1180   Si       0.22219    0.51023    0.54110    1.000
    Si1181   Si       0.17878    0.31189    0.73713    1.000
    N1182    N        0.20783    0.32661    0.70635    1.000
    Si1183   Si       0.20497    0.36767    0.69168    1.000
    N1184    N        0.17542    0.37349    0.66060    1.000
    N1185    N        0.20895    0.26148    0.67837    1.000
    N1186    N        0.19375    0.39272    0.72746    1.000
    Si1187   Si       0.19114    0.39736    0.62816    1.000
    N1188    N        0.19476    0.49233    0.68364    1.000
    N1189    N        0.19329    0.29772    0.77483    1.000
    Si1190   Si       0.19484    0.31411    0.85775    1.000
    N1191    N        0.17461    0.28029    0.84034    1.000
    N1192    N        0.21586    0.33309    0.82631    1.000
    N1193    N        0.20202    0.39541    0.79770    1.000
    Si1194   Si       0.19961    0.47827    0.78270    1.000
    N1195    N        0.17551    0.47031    0.86574    1.000
    Si1196   Si       0.21635    0.48344    0.85824    1.000
    Si1197   Si       0.22032    0.40596    0.75764    1.000
    N1198    N        0.22018    0.38727    0.86658    1.000
    N1199    N        0.22353    0.49086    0.81665    1.000
    N1200    N        0.22293    0.44888    0.76063    1.000
    N1201    N        0.18296    0.50737    0.75518    1.000
    N1202    N        0.16938    0.34417    0.87626    1.000
    N1203    N        0.19223    0.36092    0.95964    1.000
    N1204    N        0.20602    0.29735    0.97041    1.000
    N1205    N        0.22173    0.29683    0.88533    1.000
    N1206    N        0.19465    0.49892    0.99011    1.000
    Si1207   Si       0.17728    0.38552    0.87632    1.000
    N1208    N        0.18100    0.41008    0.91149    1.000
    Si1209   Si       0.17585    0.45445    0.90540    1.000
    N1210    N        0.21043    0.47710    0.92024    1.000
    Si1211   Si       0.21126    0.38759    0.93288    1.000
    N1212    N        0.19284    0.55585    0.07157    1.000
    Si1213   Si       0.19209    0.57125    0.11120    1.000
    Si1214   Si       0.19743    0.51463    0.06214    1.000
    N1215    N        0.21476    0.60804    0.11233    1.000
    N1216    N        0.22185    0.60982    0.01953    1.000
    Si1217   Si       0.19767    0.64328    0.03461    1.000
    Si1218   Si       0.19580    0.68612    0.09527    1.000
    N1219    N        0.20213    0.72761    0.08698    1.000
    N1220    N        0.19759    0.67839    0.00699    1.000
    N1221    N        0.22141    0.65983    0.07041    1.000
    Si1222   Si       0.20862    0.54144    0.18159    1.000
    Si1223   Si       0.18575    0.60951    0.20411    1.000
    N1224    N        0.17839    0.56927    0.18999    1.000
    N1225    N        0.21408    0.54426    0.13747    1.000
    N1226    N        0.16585    0.61760    0.24188    1.000
    N1227    N        0.20991    0.75363    0.16579    1.000
    Si1228   Si       0.19080    0.70088    0.23763    1.000
    Si1229   Si       0.16927    0.74424    0.17934    1.000
    N1230    N        0.20900    0.67734    0.20494    1.000
    Si1231   Si       0.21661    0.75184    0.12183    1.000
    N1232    N        0.21582    0.68148    0.13576    1.000
    Si1233   Si       0.18748    0.67421    0.16680    1.000
    N1234    N        0.16585    0.73050    0.22073    1.000
    N1235    N        0.16475    0.56641    0.00606    1.000
    N1236    N        0.16560    0.63733    0.17495    1.000
    N1237    N        0.19204    0.56709    0.33066    1.000
    Si1238   Si       0.18712    0.59683    0.27307    1.000
    N1239    N        0.17820    0.62717    0.30540    1.000
    Si1240   Si       0.17344    0.60543    0.34412    1.000
    N1241    N        0.17112    0.55839    0.26365    1.000
    Si1242   Si       0.21377    0.73768    0.32478    1.000
    Si1243   Si       0.18543    0.67037    0.30673    1.000
    N1244    N        0.17093    0.74496    0.32451    1.000
    N1245    N        0.22046    0.69498    0.31534    1.000
    N1246    N        0.16796    0.67869    0.26699    1.000
    N1247    N        0.20570    0.71118    0.47134    1.000
    N1248    N        0.18684    0.61783    0.38474    1.000
    N1249    N        0.17829    0.59016    0.44543    1.000
    Si1250   Si       0.21173    0.57228    0.42350    1.000
    N1251    N        0.21642    0.54182    0.39483    1.000
    Si1252   Si       0.19784    0.57923    0.48582    1.000
    Si1253   Si       0.18939    0.50998    0.39398    1.000
    Si1254   Si       0.17366    0.67914    0.38705    1.000
    N1255    N        0.21376    0.67621    0.40214    1.000
    Si1256   Si       0.17001    0.73441    0.46334    1.000
    N1257    N        0.21013    0.61666    0.56019    1.000
    N1258    N        0.20798    0.54994    0.52535    1.000
    N1259    N        0.21544    0.55830    0.59490    1.000
    Si1260   Si       0.21873    0.74049    0.65181    1.000
    N1261    N        0.21755    0.73416    0.53758    1.000
    Si1262   Si       0.18947    0.64149    0.58976    1.000
    Si1263   Si       0.18466    0.71652    0.60743    1.000
    Si1264   Si       0.17268    0.71982    0.53450    1.000
    N1265    N        0.20860    0.67780    0.60009    1.000
    N1266    N        0.18688    0.67593    0.52472    1.000
    Si1267   Si       0.21691    0.64308    0.52603    1.000
    N1268    N        0.21674    0.74638    0.60654    1.000
    Si1269   Si       0.16337    0.62013    0.65948    1.000
    N1270    N        0.18616    0.61287    0.62203    1.000
    N1271    N        0.19232    0.62312    0.69220    1.000
    N1272    N        0.18030    0.72063    0.65149    1.000
    Si1273   Si       0.17225    0.64134    0.72614    1.000
    N1274    N        0.17601    0.68339    0.71301    1.000
    Si1275   Si       0.20832    0.70454    0.73361    1.000
    Si1276   Si       0.22633    0.51739    0.61329    1.000
    N1277    N        0.16404    0.75336    0.50648    1.000
    N1278    N        0.22066    0.61519    0.49530    1.000
    N1279    N        0.19399    0.57486    0.82174    1.000
    Si1280   Si       0.17949    0.54765    0.85248    1.000
    Si1281   Si       0.17929    0.54931    0.74918    1.000
    Si1282   Si       0.16419    0.60609    0.79868    1.000
    N1283    N        0.21930    0.55966    0.75993    1.000
    N1284    N        0.18019    0.63351    0.76815    1.000
    Si1285   Si       0.21745    0.72472    0.80603    1.000
    N1286    N        0.20601    0.68397    0.81703    1.000
    N1287    N        0.20398    0.73280    0.76638    1.000
    Si1288   Si       0.18139    0.66770    0.84948    1.000
    Si1289   Si       0.21514    0.65220    0.78779    1.000
    N1290    N        0.20985    0.66272    0.87993    1.000
    N1291    N        0.21148    0.52519    0.87182    1.000
    Si1292   Si       0.17797    0.58210    0.92162    1.000
    N1293    N        0.19691    0.54769    0.93958    1.000
    N1294    N        0.17711    0.62526    0.97524    1.000
    N1295    N        0.21360    0.60634    0.92449    1.000
    Si1296   Si       0.21654    0.51999    0.91439    1.000
    Si1297   Si       0.17285    0.53480    0.97440    1.000
    Si1298   Si       0.21954    0.60873    0.97145    1.000
    N1299    N        0.19081    0.68023    0.94002    1.000
    Si1300   Si       0.21804    0.75162    0.87080    1.000
    N1301    N        0.18690    0.73896    0.89901    1.000
    Si1302   Si       0.19168    0.72477    0.94075    1.000
    Si1303   Si       0.17009    0.66911    0.97546    1.000
    N1304    N        0.18183    0.78010    0.02809    1.000
    N1305    N        0.20682    0.84651    0.03880    1.000
    N1306    N        0.19598    0.78609    0.10520    1.000
    Si1307   Si       0.20337    0.81203    0.00940    1.000
    Si1308   Si       0.20292    0.76699    0.06652    1.000
    Si1309   Si       0.16809    0.86639    0.04255    1.000
    N1310    N        0.18603    0.99454    0.03093    1.000
    N1311    N        0.17865    0.90884    0.03990    1.000
    Si1312   Si       0.17726    0.97870    0.07155    1.000
    N1313    N        0.20752    0.95163    0.08482    1.000
    Si1314   Si       0.21470    0.91536    0.06273    1.000
    Si1315   Si       0.20551    0.84300    0.16965    1.000
    N1316    N        0.19449    0.84177    0.21153    1.000
    Si1317   Si       0.17225    0.87547    0.22546    1.000
    N1318    N        0.16676    0.83476    0.15270    1.000
    Si1319   Si       0.20138    0.81140    0.24129    1.000
    N1320    N        0.21046    0.95011    0.16012    1.000
    N1321    N        0.18723    0.91493    0.23291    1.000
    Si1322   Si       0.18921    0.97791    0.18459    1.000
    N1323    N        0.21004    0.98076    0.22708    1.000
    N1324    N        0.20688    0.83393    0.27901    1.000
    N1325    N        0.21772    0.93733    0.41832    1.000
    N1326    N        0.17715    0.92489    0.29854    1.000
    N1327    N        0.21200    0.98087    0.29755    1.000
    Si1328   Si       0.19185    0.99601    0.26195    1.000
    Si1329   Si       0.21820    0.93843    0.30556    1.000
    N1330    N        0.16935    0.92918    0.36961    1.000
    N1331    N        0.20780    0.00630    0.36243    1.000
    Si1332   Si       0.21568    0.82963    0.38182    1.000
    N1333    N        0.17688    0.76629    0.43387    1.000
    Si1334   Si       0.20648    0.79632    0.44529    1.000
    N1335    N        0.18526    0.83242    0.45421    1.000
    N1336    N        0.17528    0.81406    0.38078    1.000
    N1337    N        0.20750    0.87274    0.39502    1.000
    Si1338   Si       0.19189    0.87335    0.43666    1.000
    Si1339   Si       0.19499    0.97027    0.43109    1.000
    N1340    N        0.21586    0.89324    0.46731    1.000
    Si1341   Si       0.20900    0.91407    0.38114    1.000
    N1342    N        0.18299    0.96775    0.47283    1.000
    N1343    N        0.22049    0.00505    0.42971    1.000
    N1344    N        0.22453    0.77870    0.48091    1.000
    N1345    N        0.16698    0.78735    0.25118    1.000
    N1346    N        0.16542    0.86881    0.33165    1.000
    N1347    N        0.18797    0.83784    0.58958    1.000
    Si1348   Si       0.20341    0.77491    0.51888    1.000
    N1349    N        0.20316    0.87300    0.53627    1.000
    Si1350   Si       0.21476    0.83563    0.55428    1.000
    N1351    N        0.17316    0.80649    0.53445    1.000
    Si1352   Si       0.20420    0.97378    0.50779    1.000
    N1353    N        0.21403    0.98547    0.60152    1.000
    N1354    N        0.17852    0.98247    0.54242    1.000
    Si1355   Si       0.19834    0.90321    0.50557    1.000
    Si1356   Si       0.20055    0.00116    0.71043    1.000
    N1357    N        0.16400    0.76652    0.72384    1.000
    Si1358   Si       0.19882    0.85333    0.62973    1.000
    N1359    N        0.21176    0.77925    0.67099    1.000
    Si1360   Si       0.17682    0.79568    0.69185    1.000
    Si1361   Si       0.18258    0.86344    0.69173    1.000
    N1362    N        0.19081    0.82755    0.71700    1.000
    N1363    N        0.16964    0.83761    0.65882    1.000
    N1364    N        0.21879    0.88932    0.69886    1.000
    Si1365   Si       0.19869    0.98143    0.64255    1.000
    N1366    N        0.19388    0.89702    0.63748    1.000
    N1367    N        0.19573    0.80410    0.78064    1.000
    Si1368   Si       0.19812    0.83966    0.75756    1.000
    Si1369   Si       0.17911    0.76799    0.76309    1.000
    N1370    N        0.16950    0.87180    0.76436    1.000
    N1371    N        0.21616    0.83934    0.84018    1.000
    Si1372   Si       0.21984    0.80081    0.81736    1.000
    N1373    N        0.22377    0.94142    0.83252    1.000
    Si1374   Si       0.20016    0.96847    0.80725    1.000
    N1375    N        0.16397    0.00145    0.87323    1.000
    Si1376   Si       0.19242    0.82111    0.87263    1.000
    N1377    N        0.18438    0.83232    0.97476    1.000
    Si1378   Si       0.20884    0.84804    0.94207    1.000
    N1379    N        0.18375    0.84745    0.90646    1.000
    Si1380   Si       0.16654    0.96166    0.88987    1.000
    Si1381   Si       0.22199    0.98768    0.92542    1.000
    N1382    N        0.20681    0.94893    0.90656    1.000
    N1383    N        0.21462    0.94189    0.97808    1.000
    Si1384   Si       0.20057    0.92206    0.94139    1.000
    N1385    N        0.19498    0.00233    0.95632    1.000
    Si1386   Si       0.18748    0.97484    0.99044    1.000
    N1387    N        0.20273    0.75822    0.82997    1.000
    N1388    N        0.26457    0.09901    0.05414    1.000
    Si1389   Si       0.24440    0.06252    0.06875    1.000
    Si1390   Si       0.23610    0.09699    0.02054    1.000
    N1391    N        0.23065    0.05916    0.10967    1.000
    Si1392   Si       0.27645    0.01933    0.11035    1.000
    N1393    N        0.27465    0.03183    0.06882    1.000
    N1394    N        0.24079    0.19092    0.07221    1.000
    Si1395   Si       0.23265    0.16939    0.03557    1.000
    Si1396   Si       0.27914    0.19184    0.08989    1.000
    N1397    N        0.24797    0.17436    0.99577    1.000
    N1398    N        0.25266    0.10942    0.16470    1.000
    N1399    N        0.23596    0.06112    0.21646    1.000
    Si1400   Si       0.26072    0.07851    0.13440    1.000
    Si1401   Si       0.27426    0.03925    0.21776    1.000
    Si1402   Si       0.22562    0.10090    0.19747    1.000
    N1403    N        0.23543    0.23879    0.14462    1.000
    Si1404   Si       0.24604    0.19936    0.15685    1.000
    N1405    N        0.25426    0.20109    0.20028    1.000
    N1406    N        0.27380    0.17569    0.13361    1.000
    N1407    N        0.22505    0.13465    0.22328    1.000
    N1408    N        0.22761    0.23893    0.99230    1.000
    N1409    N        0.24344    0.09880    0.28185    1.000
    N1410    N        0.26897    0.03078    0.26029    1.000
    Si1411   Si       0.23320    0.05605    0.26470    1.000
    N1412    N        0.23268    0.11997    0.34749    1.000
    N1413    N        0.23137    0.04806    0.31147    1.000
    Si1414   Si       0.22978    0.18343    0.46508    1.000
    Si1415   Si       0.22995    0.13901    0.26581    1.000
    N1416    N        0.25987    0.18980    0.34958    1.000
    N1417    N        0.26184    0.16722    0.27046    1.000
    Si1418   Si       0.26898    0.14816    0.35206    1.000
    Si1419   Si       0.27858    0.22943    0.33372    1.000
    N1420    N        0.27664    0.04368    0.45550    1.000
    Si1421   Si       0.23609    0.02644    0.46141    1.000
    N1422    N        0.24703    0.05772    0.38932    1.000
    N1423    N        0.24322    0.11524    0.42909    1.000
    Si1424   Si       0.23722    0.01553    0.39242    1.000
    Si1425   Si       0.22995    0.09629    0.39294    1.000
    Si1426   Si       0.23224    0.10469    0.47017    1.000
    N1427    N        0.27954    0.00697    0.39798    1.000
    Si1428   Si       0.27843    0.21502    0.44871    1.000
    Si1429   Si       0.23690    0.20087    0.38634    1.000
    N1430    N        0.23469    0.24490    0.38938    1.000
    N1431    N        0.25499    0.21230    0.48536    1.000
    Si1432   Si       0.27441    0.14885    0.43493    1.000
    N1433    N        0.25097    0.18841    0.42614    1.000
    N1434    N        0.25400    0.15069    0.47635    1.000
    N1435    N        0.25375    0.25920    0.31283    1.000
    N1436    N        0.26447    0.09351    0.49780    1.000
    N1437    N        0.26066    0.09473    0.59507    1.000
    Si1438   Si       0.24608    0.05293    0.59786    1.000
    Si1439   Si       0.23585    0.12625    0.58110    1.000
    Si1440   Si       0.25211    0.01517    0.53500    1.000
    N1441    N        0.22702    0.03776    0.56154    1.000
    Si1442   Si       0.23869    0.18581    0.63787    1.000
    Si1443   Si       0.23149    0.18839    0.71205    1.000
    Si1444   Si       0.27084    0.13374    0.51258    1.000
    N1445    N        0.24538    0.14706    0.54321    1.000
    Si1446   Si       0.23743    0.18491    0.55971    1.000
    N1447    N        0.26625    0.22020    0.55644    1.000
    Si1448   Si       0.27171    0.24046    0.51740    1.000
    N1449    N        0.24236    0.16616    0.59922    1.000
    Si1450   Si       0.27205    0.23404    0.59761    1.000
    N1451    N        0.25072    0.07030    0.68078    1.000
    N1452    N        0.28217    0.01400    0.66166    1.000
    N1453    N        0.23979    0.22671    0.62244    1.000
    N1454    N        0.26899    0.21038    0.70398    1.000
    N1455    N        0.24192    0.15685    0.73842    1.000
    N1456    N        0.27696    0.16655    0.65001    1.000
    Si1457   Si       0.24986    0.08803    0.78084    1.000
    N1458    N        0.25417    0.04580    0.78689    1.000
    Si1459   Si       0.24543    0.08226    0.85459    1.000
    N1460    N        0.26157    0.10562    0.82088    1.000
    N1461    N        0.27168    0.05133    0.86755    1.000
    N1462    N        0.27952    0.10352    0.75653    1.000
    N1463    N        0.28151    0.22126    0.95662    1.000
    N1464    N        0.23235    0.20321    0.80555    1.000
    Si1465   Si       0.27487    0.20182    0.79901    1.000
    Si1466   Si       0.28203    0.14703    0.75235    1.000
    N1467    N        0.26868    0.24915    0.88313    1.000
    Si1468   Si       0.26679    0.02897    0.90676    1.000
    N1469    N        0.23948    0.11173    0.88731    1.000
    N1470    N        0.25342    0.10317    0.98167    1.000
    N1471    N        0.22615    0.01581    0.89265    1.000
    N1472    N        0.24762    0.18255    0.87050    1.000
    Si1473   Si       0.26260    0.21441    0.99542    1.000
    Si1474   Si       0.26536    0.14686    0.89002    1.000
    Si1475   Si       0.22449    0.25440    0.88618    1.000
    N1476    N        0.27200    0.15101    0.93364    1.000
    Si1477   Si       0.24587    0.14079    0.96550    1.000
    Si1478   Si       0.24349    0.31994    0.03600    1.000
    N1479    N        0.26370    0.35276    0.05884    1.000
    N1480    N        0.26904    0.29184    0.05508    1.000
    Si1481   Si       0.24567    0.37194    0.09139    1.000
    N1482    N        0.25536    0.33646    0.99685    1.000
    Si1483   Si       0.27782    0.36777    0.01650    1.000
    N1484    N        0.24688    0.40275    0.01755    1.000
    N1485    N        0.24203    0.41474    0.08351    1.000
    Si1486   Si       0.25585    0.44561    0.11102    1.000
    Si1487   Si       0.22923    0.48263    0.01186    1.000
    N1488    N        0.26199    0.49022    0.11827    1.000
    N1489    N        0.26366    0.46380    0.99595    1.000
    Si1490   Si       0.24323    0.49816    0.21263    1.000
    N1491    N        0.26097    0.35211    0.12730    1.000
    Si1492   Si       0.25415    0.29800    0.23172    1.000
    Si1493   Si       0.25069    0.27591    0.16169    1.000
    N1494    N        0.24337    0.33491    0.20886    1.000
    N1495    N        0.26335    0.26778    0.20226    1.000
    Si1496   Si       0.27449    0.36530    0.20318    1.000
    N1497    N        0.22932    0.44043    0.14622    1.000
    N1498    N        0.26998    0.46712    0.19608    1.000
    Si1499   Si       0.26396    0.43202    0.16955    1.000
    N1500    N        0.25260    0.40152    0.19642    1.000
    Si1501   Si       0.26962    0.29909    0.30337    1.000
    N1502    N        0.23642    0.32798    0.31661    1.000
    Si1503   Si       0.23601    0.35947    0.34630    1.000
    N1504    N        0.27733    0.36517    0.35726    1.000
    N1505    N        0.26480    0.42970    0.49478    1.000
    N1506    N        0.23080    0.46949    0.31155    1.000
    Si1507   Si       0.24111    0.47265    0.35418    1.000
    N1508    N        0.24814    0.42223    0.26124    1.000
    Si1509   Si       0.24032    0.49654    0.28154    1.000
    N1510    N        0.23231    0.39811    0.32344    1.000
    Si1511   Si       0.27676    0.40453    0.33897    1.000
    N1512    N        0.26984    0.43979    0.36335    1.000
    N1513    N        0.27857    0.49654    0.25269    1.000
    N1514    N        0.26700    0.50628    0.36375    1.000
    N1515    N        0.27138    0.30583    0.39173    1.000
    Si1516   Si       0.23823    0.32538    0.41540    1.000
    N1517    N        0.25597    0.34948    0.44385    1.000
    Si1518   Si       0.27413    0.26365    0.39794    1.000
    N1519    N        0.27354    0.49510    0.45073    1.000
    Si1520   Si       0.26963    0.47160    0.48833    1.000
    N1521    N        0.25669    0.41950    0.42987    1.000
    Si1522   Si       0.25406    0.39434    0.46577    1.000
    Si1523   Si       0.24474    0.35795    0.57722    1.000
    Si1524   Si       0.23567    0.31170    0.51831    1.000
    N1525    N        0.23917    0.26804    0.52002    1.000
    N1526    N        0.27399    0.32854    0.50547    1.000
    N1527    N        0.27604    0.34158    0.60315    1.000
    N1528    N        0.22677    0.32255    0.55879    1.000
    N1529    N        0.26481    0.37830    0.54483    1.000
    Si1530   Si       0.26028    0.30647    0.62256    1.000
    N1531    N        0.24286    0.50055    0.57800    1.000
    Si1532   Si       0.25294    0.41898    0.53655    1.000
    N1533    N        0.25335    0.50204    0.51371    1.000
    Si1534   Si       0.28042    0.48497    0.56992    1.000
    N1535    N        0.28051    0.44334    0.56066    1.000
    Si1536   Si       0.23464    0.29411    0.69114    1.000
    N1537    N        0.25902    0.31574    0.66419    1.000
    N1538    N        0.26508    0.27864    0.71752    1.000
    Si1539   Si       0.27230    0.35669    0.67710    1.000
    N1540    N        0.23950    0.38496    0.67384    1.000
    Si1541   Si       0.26271    0.44670    0.73750    1.000
    N1542    N        0.25503    0.50701    0.64786    1.000
    N1543    N        0.25136    0.45576    0.69756    1.000
    Si1544   Si       0.23721    0.49468    0.68842    1.000
    Si1545   Si       0.24668    0.42656    0.66303    1.000
    N1546    N        0.27940    0.43836    0.64139    1.000
    Si1547   Si       0.28524    0.31108    0.73725    1.000
    N1548    N        0.25048    0.27432    0.82241    1.000
    N1549    N        0.26145    0.31189    0.77440    1.000
    Si1550   Si       0.22772    0.37474    0.82613    1.000
    Si1551   Si       0.22851    0.30229    0.79864    1.000
    Si1552   Si       0.27914    0.27906    0.85432    1.000
    N1553    N        0.26919    0.38861    0.82956    1.000
    Si1554   Si       0.25884    0.41113    0.86426    1.000
    N1555    N        0.26113    0.40390    0.74568    1.000
    Si1556   Si       0.22808    0.26348    0.95677    1.000
    Si1557   Si       0.25374    0.31638    0.90774    1.000
    N1558    N        0.24475    0.35253    0.92865    1.000
    N1559    N        0.26192    0.28497    0.93825    1.000
    Si1560   Si       0.22578    0.33478    0.96531    1.000
    N1561    N        0.28274    0.31626    0.87546    1.000
    N1562    N        0.24283    0.45120    0.87233    1.000
    Si1563   Si       0.24587    0.45186    0.91691    1.000
    N1564    N        0.23632    0.41917    0.94786    1.000
    Si1565   Si       0.26082    0.42460    0.98256    1.000
    N1566    N        0.26916    0.50738    0.76807    1.000
    Si1567   Si       0.26056    0.59772    0.03100    1.000
    N1568    N        0.27333    0.60652    0.07094    1.000
    Si1569   Si       0.27828    0.52401    0.05338    1.000
    N1570    N        0.27932    0.55832    0.02587    1.000
    Si1571   Si       0.24405    0.63113    0.09339    1.000
    Si1572   Si       0.27130    0.74695    0.07974    1.000
    Si1573   Si       0.26146    0.58316    0.20763    1.000
    N1574    N        0.24670    0.54302    0.20755    1.000
    N1575    N        0.22844    0.61219    0.20669    1.000
    N1576    N        0.26873    0.64321    0.12810    1.000
    N1577    N        0.25820    0.74721    0.12002    1.000
    N1578    N        0.27705    0.65833    0.18613    1.000
    Si1579   Si       0.24452    0.65330    0.21354    1.000
    Si1580   Si       0.25824    0.67835    0.15007    1.000
    N1581    N        0.23732    0.50923    0.04540    1.000
    N1582    N        0.25716    0.57636    0.34933    1.000
    N1583    N        0.25517    0.53544    0.29473    1.000
    Si1584   Si       0.26799    0.61395    0.27257    1.000
    Si1585   Si       0.23276    0.56669    0.31541    1.000
    N1586    N        0.23041    0.59591    0.28299    1.000
    Si1587   Si       0.25580    0.75439    0.46588    1.000
    N1588    N        0.25655    0.65399    0.25675    1.000
    Si1589   Si       0.24933    0.68988    0.28221    1.000
    N1590    N        0.23610    0.74765    0.36123    1.000
    N1591    N        0.22911    0.71821    0.25421    1.000
    N1592    N        0.23793    0.60756    0.42296    1.000
    Si1593   Si       0.25647    0.54501    0.37905    1.000
    Si1594   Si       0.26568    0.53801    0.45021    1.000
    Si1595   Si       0.24784    0.62007    0.46344    1.000
    N1596    N        0.22701    0.55284    0.46024    1.000
    N1597    N        0.28062    0.55344    0.41307    1.000
    N1598    N        0.26615    0.64130    0.37215    1.000
    Si1599   Si       0.24353    0.75809    0.25981    1.000
    N1600    N        0.25397    0.66407    0.45706    1.000
    N1601    N        0.25001    0.73168    0.42800    1.000
    Si1602   Si       0.22897    0.69410    0.43875    1.000
    Si1603   Si       0.22861    0.63565    0.39292    1.000
    Si1604   Si       0.26687    0.74203    0.39021    1.000
    N1605    N        0.26406    0.60315    0.60208    1.000
    N1606    N        0.26753    0.56935    0.54440    1.000
    Si1607   Si       0.22633    0.57601    0.55709    1.000
    N1608    N        0.23516    0.72371    0.70452    1.000
    N1609    N        0.25121    0.67014    0.53031    1.000
    Si1610   Si       0.23299    0.70366    0.50778    1.000
    N1611    N        0.27633    0.66878    0.60178    1.000
    Si1612   Si       0.22274    0.59198    0.62102    1.000
    N1613    N        0.23511    0.57886    0.65885    1.000
    Si1614   Si       0.23383    0.61699    0.68152    1.000
    Si1615   Si       0.26374    0.54775    0.66664    1.000
    N1616    N        0.25537    0.53160    0.70567    1.000
    N1617    N        0.25535    0.62093    0.71893    1.000
    Si1618   Si       0.25878    0.54230    0.74654    1.000
    N1619    N        0.25032    0.64288    0.65118    1.000
    N1620    N        0.25290    0.71382    0.64767    1.000
    Si1621   Si       0.26755    0.65804    0.73610    1.000
    Si1622   Si       0.24297    0.67813    0.62621    1.000
    Si1623   Si       0.27275    0.71254    0.68759    1.000
    Si1624   Si       0.23853    0.75647    0.57059    1.000
    N1625    N        0.26993    0.72555    0.49185    1.000
    N1626    N        0.25734    0.54979    0.81917    1.000
    N1627    N        0.23862    0.61897    0.79979    1.000
    Si1628   Si       0.22954    0.57611    0.79804    1.000
    Si1629   Si       0.26271    0.50707    0.81150    1.000
    Si1630   Si       0.28109    0.65003    0.98114    1.000
    Si1631   Si       0.27842    0.63226    0.80677    1.000
    N1632    N        0.26117    0.73218    0.80354    1.000
    N1633    N        0.23198    0.67370    0.75361    1.000
    N1634    N        0.27177    0.66935    0.82996    1.000
    Si1635   Si       0.24836    0.68044    0.86666    1.000
    N1636    N        0.25981    0.58490    0.88127    1.000
    N1637    N        0.25893    0.53207    0.92452    1.000
    Si1638   Si       0.24819    0.57599    0.92188    1.000
    N1639    N        0.25795    0.58034    0.96524    1.000
    N1640    N        0.27355    0.69261    0.98938    1.000
    Si1641   Si       0.22130    0.65334    0.92138    1.000
    Si1642   Si       0.27448    0.72973    0.95857    1.000
    Si1643   Si       0.22904    0.68670    0.98110    1.000
    N1644    N        0.24006    0.64805    0.96459    1.000
    N1645    N        0.24886    0.72226    0.87653    1.000
    N1646    N        0.22958    0.72609    0.96212    1.000
    N1647    N        0.26478    0.66043    0.90287    1.000
    Si1648   Si       0.24841    0.85779    0.04058    1.000
    Si1649   Si       0.26674    0.78498    0.02067    1.000
    N1650    N        0.24465    0.76778    0.05376    1.000
    N1651    N        0.26106    0.87749    0.00376    1.000
    N1652    N        0.27778    0.82236    0.04155    1.000
    N1653    N        0.24928    0.89166    0.06861    1.000
    Si1654   Si       0.27717    0.89779    0.10248    1.000
    Si1655   Si       0.22934    0.95714    0.12080    1.000
    N1656    N        0.24391    0.99678    0.12380    1.000
    N1657    N        0.27663    0.99723    0.00872    1.000
    N1658    N        0.24216    0.81646    0.16662    1.000
    Si1659   Si       0.23944    0.77800    0.18612    1.000
    Si1660   Si       0.26685    0.85086    0.16356    1.000
    N1661    N        0.23141    0.87840    0.16420    1.000
    N1662    N        0.23035    0.78275    0.22824    1.000
    N1663    N        0.27757    0.75825    0.18477    1.000
    N1664    N        0.26037    0.92799    0.12826    1.000
    N1665    N        0.25771    0.93341    0.20267    1.000
    Si1666   Si       0.24106    0.91945    0.16595    1.000
    N1667    N        0.28247    0.00123    0.19601    1.000
    Si1668   Si       0.22483    0.93879    0.23200    1.000
    Si1669   Si       0.26232    0.78152    0.34659    1.000
    N1670    N        0.25978    0.86587    0.30354    1.000
    Si1671   Si       0.24285    0.82588    0.30144    1.000
    N1672    N        0.23711    0.81947    0.34477    1.000
    N1673    N        0.27799    0.81253    0.27888    1.000
    N1674    N        0.22735    0.76866    0.29751    1.000
    Si1675   Si       0.24452    0.92075    0.45108    1.000
    N1676    N        0.23158    0.91695    0.34284    1.000
    N1677    N        0.24354    0.92950    0.26974    1.000
    Si1678   Si       0.26921    0.89676    0.33310    1.000
    N1679    N        0.27225    0.99378    0.32512    1.000
    N1680    N        0.23543    0.80866    0.41490    1.000
    Si1681   Si       0.27862    0.80551    0.41785    1.000
    N1682    N        0.27178    0.94746    0.47435    1.000
    N1683    N        0.28417    0.78218    0.38339    1.000
    N1684    N        0.27640    0.90442    0.42722    1.000
    Si1685   Si       0.23066    0.00874    0.32516    1.000
    N1686    N        0.23075    0.00626    0.49838    1.000
    N1687    N        0.25336    0.84689    0.57260    1.000
    Si1688   Si       0.27448    0.81036    0.56495    1.000
    N1689    N        0.23257    0.79574    0.54791    1.000
    N1690    N        0.28062    0.76738    0.56969    1.000
    N1691    N        0.22285    0.93724    0.51680    1.000
    Si1692   Si       0.26411    0.88823    0.56706    1.000
    Si1693   Si       0.24746    0.96089    0.58955    1.000
    N1694    N        0.25859    0.97594    0.55005    1.000
    N1695    N        0.23921    0.91884    0.58449    1.000
    Si1696   Si       0.26701    0.94484    0.51949    1.000
    N1697    N        0.27844    0.90067    0.52781    1.000
    N1698    N        0.28332    0.96107    0.61407    1.000
    N1699    N        0.24233    0.98669    0.71655    1.000
    N1700    N        0.27272    0.78000    0.64024    1.000
    N1701    N        0.23794    0.84102    0.64550    1.000
    Si1702   Si       0.24659    0.80363    0.66450    1.000
    N1703    N        0.26737    0.82106    0.69551    1.000
    Si1704   Si       0.27374    0.86006    0.67091    1.000
    Si1705   Si       0.26348    0.97907    0.68116    1.000
    N1706    N        0.22978    0.95720    0.66035    1.000
    N1707    N        0.26683    0.90115    0.64834    1.000
    Si1708   Si       0.22734    0.91282    0.65988    1.000
    Si1709   Si       0.24689    0.89031    0.72974    1.000
    N1710    N        0.26575    0.92850    0.74185    1.000
    N1711    N        0.25874    0.80153    0.80016    1.000
    Si1712   Si       0.25171    0.86200    0.85091    1.000
    Si1713   Si       0.26631    0.84244    0.78350    1.000
    N1714    N        0.23796    0.85871    0.75806    1.000
    N1715    N        0.27387    0.87013    0.81608    1.000
    Si1716   Si       0.28083    0.76658    0.78549    1.000
    Si1717   Si       0.26342    0.96608    0.82546    1.000
    Si1718   Si       0.25902    0.96871    0.75136    1.000
    N1719    N        0.23967    0.97904    0.78815    1.000
    N1720    N        0.26726    0.96000    0.87005    1.000
    Si1721   Si       0.26661    0.79997    0.95783    1.000
    N1722    N        0.24833    0.82847    0.92974    1.000
    Si1723   Si       0.26168    0.86849    0.91733    1.000
    Si1724   Si       0.26426    0.80072    0.89376    1.000
    N1725    N        0.27472    0.76833    0.93082    1.000
    N1726    N        0.23924    0.79891    0.99110    1.000
    N1727    N        0.28302    0.84020    0.87965    1.000
    N1728    N        0.22607    0.79246    0.87822    1.000
    Si1729   Si       0.24863    0.91282    0.97941    1.000
    Si1730   Si       0.23508    0.93224    0.87501    1.000
    N1731    N        0.24606    0.89127    0.88282    1.000
    N1732    N        0.26556    0.98829    0.93288    1.000
    N1733    N        0.22846    0.88794    0.94630    1.000
    N1734    N        0.28366    0.93631    0.97010    1.000
    Si1735   Si       0.29959    0.11491    0.07279    1.000
    Si1736   Si       0.29845    0.02351    0.03481    1.000
    N1737    N        0.30195    0.06240    0.00880    1.000
    N1738    N        0.29140    0.10474    0.11473    1.000
    N1739    N        0.33650    0.10098    0.05142    1.000
    N1740    N        0.33866    0.01526    0.04811    1.000
    Si1741   Si       0.33846    0.08596    0.00908    1.000
    N1742    N        0.29544    0.23444    0.09436    1.000
    N1743    N        0.29129    0.22192    0.02679    1.000
    N1744    N        0.30490    0.15901    0.07443    1.000
    Si1745   Si       0.32554    0.20371    0.00923    1.000
    Si1746   Si       0.32045    0.05862    0.16850    1.000
    N1747    N        0.30609    0.06602    0.20900    1.000
    Si1748   Si       0.33309    0.09157    0.22949    1.000
    N1749    N        0.28729    0.04658    0.14427    1.000
    Si1750   Si       0.30966    0.25283    0.12899    1.000
    N1751    N        0.30713    0.22682    0.16374    1.000
    N1752    N        0.30865    0.22039    0.23748    1.000
    Si1753   Si       0.31690    0.18747    0.14704    1.000
    N1754    N        0.31893    0.14825    0.16468    1.000
    Si1755   Si       0.28574    0.23134    0.20168    1.000
    Si1756   Si       0.28340    0.13342    0.14538    1.000
    N1757    N        0.32252    0.10576    0.27079    1.000
    N1758    N        0.30622    0.05891    0.30419    1.000
    Si1759   Si       0.28549    0.09747    0.29583    1.000
    Si1760   Si       0.29098    0.02015    0.29531    1.000
    N1761    N        0.29524    0.12916    0.32340    1.000
    Si1762   Si       0.33389    0.13702    0.30340    1.000
    Si1763   Si       0.29615    0.19090    0.26504    1.000
    N1764    N        0.30645    0.21499    0.30364    1.000
    N1765    N        0.33402    0.16757    0.27343    1.000
    N1766    N        0.29997    0.24236    0.37004    1.000
    Si1767   Si       0.32222    0.11755    0.40800    1.000
    N1768    N        0.32006    0.07340    0.40339    1.000
    Si1769   Si       0.33260    0.11549    0.48240    1.000
    N1770    N        0.30753    0.12293    0.44963    1.000
    N1771    N        0.33347    0.07221    0.48892    1.000
    Si1772   Si       0.29230    0.06115    0.49268    1.000
    Si1773   Si       0.28435    0.04742    0.41307    1.000
    N1774    N        0.28485    0.25639    0.43981    1.000
    N1775    N        0.31491    0.19213    0.44800    1.000
    N1776    N        0.29077    0.14341    0.39175    1.000
    Si1777   Si       0.31069    0.03683    0.56266    1.000
    N1778    N        0.32084    0.07964    0.56883    1.000
    Si1779   Si       0.30216    0.09511    0.60445    1.000
    Si1780   Si       0.33205    0.11918    0.55432    1.000
    N1781    N        0.28778    0.03631    0.52649    1.000
    N1782    N        0.31323    0.13354    0.51818    1.000
    N1783    N        0.31270    0.13629    0.59095    1.000
    N1784    N        0.30451    0.20484    0.60601    1.000
    Si1785   Si       0.28834    0.16544    0.60891    1.000
    N1786    N        0.30882    0.25617    0.50309    1.000
    Si1787   Si       0.29186    0.05537    0.67449    1.000
    N1788    N        0.31665    0.05762    0.71043    1.000
    N1789    N        0.31125    0.07876    0.64428    1.000
    Si1790   Si       0.28409    0.24162    0.72790    1.000
    Si1791   Si       0.29458    0.18355    0.68434    1.000
    N1792    N        0.33106    0.23614    0.72500    1.000
    N1793    N        0.30548    0.15572    0.71536    1.000
    Si1794   Si       0.33909    0.21001    0.63031    1.000
    N1795    N        0.33047    0.19986    0.67061    1.000
    N1796    N        0.28368    0.03029    0.59521    1.000
    N1797    N        0.32160    0.05588    0.78383    1.000
    Si1798   Si       0.30675    0.03022    0.85443    1.000
    Si1799   Si       0.29320    0.02465    0.78345    1.000
    N1800    N        0.33798    0.11794    0.81709    1.000
    Si1801   Si       0.31455    0.08088    0.74681    1.000
    Si1802   Si       0.29855    0.13162    0.82314    1.000
    N1803    N        0.29904    0.21349    0.83227    1.000
    Si1804   Si       0.33357    0.24069    0.82799    1.000
    N1805    N        0.28966    0.16257    0.79085    1.000
    N1806    N        0.30116    0.14339    0.86627    1.000
    N1807    N        0.32461    0.10340    0.97089    1.000
    Si1808   Si       0.32321    0.02694    0.93341    1.000
    Si1809   Si       0.28876    0.07955    0.97106    1.000
    N1810    N        0.28764    0.05287    0.93719    1.000
    N1811    N        0.31009    0.01137    0.89418    1.000
    N1812    N        0.32224    0.17301    0.97773    1.000
    Si1813   Si       0.33582    0.15971    0.88721    1.000
    Si1814   Si       0.28137    0.20708    0.87200    1.000
    N1815    N        0.30864    0.19480    0.90154    1.000
    Si1816   Si       0.28991    0.25032    0.92483    1.000
    Si1817   Si       0.29786    0.18297    0.94275    1.000
    N1818    N        0.34335    0.05399    0.85153    1.000
    N1819    N        0.28303    0.23867    0.77210    1.000
    N1820    N        0.32027    0.33043    0.10387    1.000
    N1821    N        0.31618    0.34827    0.02676    1.000
    Si1822   Si       0.30377    0.32319    0.06140    1.000
    N1823    N        0.32979    0.28493    0.05019    1.000
    Si1824   Si       0.29586    0.25652    0.05543    1.000
    N1825    N        0.32796    0.47697    0.10354    1.000
    N1826    N        0.30794    0.49582    0.04118    1.000
    Si1827   Si       0.30174    0.48164    0.00020    1.000
    N1828    N        0.33695    0.49680    0.21944    1.000
    Si1829   Si       0.29438    0.32944    0.13834    1.000
    N1830    N        0.30217    0.34667    0.17678    1.000
    N1831    N        0.28706    0.28658    0.14134    1.000
    N1832    N        0.31894    0.43567    0.24617    1.000
    N1833    N        0.29470    0.37480    0.24113    1.000
    Si1834   Si       0.33249    0.44305    0.12851    1.000
    N1835    N        0.29117    0.42697    0.13530    1.000
    Si1836   Si       0.30192    0.47085    0.22644    1.000
    N1837    N        0.30456    0.30585    0.32828    1.000
    Si1838   Si       0.31412    0.33829    0.25849    1.000
    Si1839   Si       0.29611    0.32677    0.36400    1.000
    N1840    N        0.33635    0.35058    0.29331    1.000
    N1841    N        0.28092    0.30853    0.26309    1.000
    N1842    N        0.30411    0.40799    0.30629    1.000
    Si1843   Si       0.29010    0.41118    0.26579    1.000
    N1844    N        0.33980    0.47008    0.35105    1.000
    N1845    N        0.33724    0.33402    0.37573    1.000
    Si1846   Si       0.31784    0.27110    0.46351    1.000
    N1847    N        0.32259    0.31453    0.45858    1.000
    Si1848   Si       0.28897    0.33723    0.46661    1.000
    N1849    N        0.29692    0.37980    0.47782    1.000
    Si1850   Si       0.28585    0.43375    0.40264    1.000
    N1851    N        0.31200    0.46936    0.40684    1.000
    Si1852   Si       0.31591    0.48800    0.44861    1.000
    N1853    N        0.32144    0.40688    0.39733    1.000
    N1854    N        0.31224    0.46640    0.49009    1.000
    Si1855   Si       0.31020    0.49658    0.37086    1.000
    Si1856   Si       0.31190    0.42030    0.48789    1.000
    Si1857   Si       0.29853    0.36261    0.52541    1.000
    N1858    N        0.32728    0.33870    0.55044    1.000
    Si1859   Si       0.31858    0.34794    0.59411    1.000
    Si1860   Si       0.33019    0.27749    0.60613    1.000
    N1861    N        0.28639    0.27518    0.60952    1.000
    N1862    N        0.33974    0.26500    0.56552    1.000
    N1863    N        0.32152    0.39233    0.59606    1.000
    Si1864   Si       0.31735    0.42075    0.56357    1.000
    N1865    N        0.32485    0.40059    0.52585    1.000
    N1866    N        0.30320    0.49826    0.60406    1.000
    Si1867   Si       0.33570    0.48047    0.52730    1.000
    N1868    N        0.32205    0.49227    0.66559    1.000
    N1869    N        0.30768    0.37422    0.66280    1.000
    N1870    N        0.28763    0.34883    0.71827    1.000
    Si1871   Si       0.29897    0.38371    0.74044    1.000
    Si1872   Si       0.28872    0.48091    0.64047    1.000
    N1873    N        0.33299    0.39907    0.71805    1.000
    Si1874   Si       0.31219    0.40770    0.63731    1.000
    N1875    N        0.31189    0.27691    0.82509    1.000
    N1876    N        0.31757    0.36600    0.77550    1.000
    N1877    N        0.32042    0.29416    0.75968    1.000
    N1878    N        0.33265    0.35546    0.84199    1.000
    Si1879   Si       0.28475    0.27860    0.79115    1.000
    Si1880   Si       0.31031    0.38046    0.81379    1.000
    N1881    N        0.29235    0.39501    0.97437    1.000
    Si1882   Si       0.30573    0.48502    0.77509    1.000
    N1883    N        0.29967    0.48430    0.81748    1.000
    N1884    N        0.32807    0.41973    0.81594    1.000
    Si1885   Si       0.32883    0.45975    0.83541    1.000
    N1886    N        0.30598    0.45202    0.74799    1.000
    Si1887   Si       0.31911    0.33809    0.87768    1.000
    N1888    N        0.31432    0.35510    0.92130    1.000
    N1889    N        0.33946    0.30861    0.97117    1.000
    N1890    N        0.33254    0.26013    0.92796    1.000
    Si1891   Si       0.34026    0.26765    0.96740    1.000
    N1892    N        0.28581    0.46739    0.92838    1.000
    Si1893   Si       0.31492    0.43912    0.90929    1.000
    N1894    N        0.28425    0.40711    0.89809    1.000
    N1895    N        0.32581    0.46623    0.87750    1.000
    Si1896   Si       0.33358    0.41024    0.97353    1.000
    Si1897   Si       0.28187    0.38043    0.93381    1.000
    N1898    N        0.34050    0.50907    0.76622    1.000
    N1899    N        0.33357    0.44979    0.99240    1.000
    N1900    N        0.29805    0.53877    0.08851    1.000
    Si1901   Si       0.30859    0.62413    0.05429    1.000
    Si1902   Si       0.33459    0.56165    0.08356    1.000
    N1903    N        0.29089    0.62563    0.01518    1.000
    N1904    N        0.34071    0.59307    0.05344    1.000
    Si1905   Si       0.30215    0.50719    0.11863    1.000
    Si1906   Si       0.29326    0.74627    0.14567    1.000
    N1907    N        0.32463    0.65140    0.08432    1.000
    Si1908   Si       0.32708    0.69080    0.06697    1.000
    Si1909   Si       0.29787    0.71543    0.01788    1.000
    N1910    N        0.33404    0.69074    0.02466    1.000
    N1911    N        0.28711    0.71274    0.05947    1.000
    N1912    N        0.28699    0.75346    0.99689    1.000
    N1913    N        0.33622    0.58775    0.12346    1.000
    N1914    N        0.32319    0.52392    0.15320    1.000
    Si1915   Si       0.32551    0.56740    0.16175    1.000
    Si1916   Si       0.29366    0.62750    0.16005    1.000
    N1917    N        0.29033    0.58888    0.17570    1.000
    Si1918   Si       0.32854    0.57752    0.24163    1.000
    N1919    N        0.34488    0.56836    0.20148    1.000
    Si1920   Si       0.31659    0.68044    0.18035    1.000
    N1921    N        0.33248    0.64583    0.15536    1.000
    N1922    N        0.32556    0.70850    0.21210    1.000
    N1923    N        0.29670    0.70187    0.14682    1.000
    Si1924   Si       0.30838    0.74863    0.21363    1.000
    N1925    N        0.32569    0.54312    0.26887    1.000
    N1926    N        0.29540    0.62036    0.30793    1.000
    Si1927   Si       0.28374    0.60932    0.34876    1.000
    N1928    N        0.28578    0.58424    0.24568    1.000
    N1929    N        0.28689    0.75370    0.25092    1.000
    Si1930   Si       0.32858    0.64836    0.31053    1.000
    N1931    N        0.33215    0.66679    0.35077    1.000
    Si1932   Si       0.30594    0.72210    0.33071    1.000
    N1933    N        0.28466    0.69881    0.30199    1.000
    N1934    N        0.29247    0.71225    0.37201    1.000
    N1935    N        0.31883    0.60007    0.37424    1.000
    N1936    N        0.29613    0.54611    0.48186    1.000
    Si1937   Si       0.31943    0.58178    0.47215    1.000
    N1938    N        0.33312    0.53109    0.38060    1.000
    Si1939   Si       0.32026    0.56713    0.40453    1.000
    N1940    N        0.29032    0.61289    0.46762    1.000
    N1941    N        0.31603    0.66827    0.41889    1.000
    N1942    N        0.31829    0.66809    0.48929    1.000
    Si1943   Si       0.29753    0.65408    0.45572    1.000
    Si1944   Si       0.29914    0.67036    0.37932    1.000
    N1945    N        0.33727    0.73623    0.47741    1.000
    Si1946   Si       0.28393    0.54073    0.26226    1.000
    Si1947   Si       0.32646    0.52659    0.58202    1.000
    N1948    N        0.32057    0.56821    0.59016    1.000
    Si1949   Si       0.29278    0.59429    0.56818    1.000
    Si1950   Si       0.28080    0.53606    0.52087    1.000
    N1951    N        0.30832    0.51106    0.54519    1.000
    N1952    N        0.30671    0.63203    0.55041    1.000
    Si1953   Si       0.33279    0.63688    0.51716    1.000
    Si1954   Si       0.31068    0.71020    0.49952    1.000
    N1955    N        0.30920    0.70483    0.54716    1.000
    N1956    N        0.32849    0.73248    0.60987    1.000
    Si1957   Si       0.31522    0.74192    0.56903    1.000
    Si1958   Si       0.28605    0.66904    0.55919    1.000
    Si1959   Si       0.33251    0.53383    0.67379    1.000
    N1960    N        0.32305    0.61351    0.70604    1.000
    N1961    N        0.32607    0.62233    0.63462    1.000
    Si1962   Si       0.33084    0.57965    0.63018    1.000
    N1963    N        0.30213    0.56116    0.65833    1.000
    Si1964   Si       0.29442    0.60662    0.73484    1.000
    Si1965   Si       0.28356    0.63310    0.62584    1.000
    N1966    N        0.30537    0.73998    0.68323    1.000
    Si1967   Si       0.33188    0.65660    0.69762    1.000
    N1968    N        0.29104    0.67721    0.70508    1.000
    Si1969   Si       0.31038    0.75572    0.64173    1.000
    N1970    N        0.30034    0.59862    0.82478    1.000
    Si1971   Si       0.33202    0.55039    0.75323    1.000
    N1972    N        0.30424    0.53674    0.86342    1.000
    Si1973   Si       0.28088    0.56879    0.84942    1.000
    N1974    N        0.29348    0.56758    0.75158    1.000
    Si1975   Si       0.34133    0.61426    0.96095    1.000
    N1976    N        0.32531    0.69939    0.79191    1.000
    Si1977   Si       0.29300    0.70775    0.82093    1.000
    N1978    N        0.31411    0.71350    0.85703    1.000
    N1979    N        0.29553    0.64151    0.76513    1.000
    Si1980   Si       0.33272    0.66387    0.77243    1.000
    N1981    N        0.33330    0.57337    0.97895    1.000
    N1982    N        0.30141    0.51786    0.97643    1.000
    N1983    N        0.33276    0.51842    0.92415    1.000
    Si1984   Si       0.29130    0.55953    0.98466    1.000
    Si1985   Si       0.33109    0.50855    0.88209    1.000
    Si1986   Si       0.29289    0.50827    0.93483    1.000
    N1987    N        0.30502    0.71115    0.92904    1.000
    N1988    N        0.31157    0.64307    0.95231    1.000
    Si1989   Si       0.30519    0.66725    0.91535    1.000
    Si1990   Si       0.28985    0.73692    0.88847    1.000
    N1991    N        0.33603    0.65681    0.88787    1.000
    Si1992   Si       0.31625    0.80894    0.05898    1.000
    N1993    N        0.30717    0.77228    0.08242    1.000
    N1994    N        0.32779    0.87312    0.01075    1.000
    Si1995   Si       0.33572    0.88089    0.05233    1.000
    N1996    N        0.31821    0.90710    0.08485    1.000
    N1997    N        0.31093    0.99281    0.11561    1.000
    Si1998   Si       0.32718    0.86235    0.22414    1.000
    N1999    N        0.30246    0.85562    0.18812    1.000
    Si2000   Si       0.32514    0.86167    0.15068    1.000
    N2001    N        0.28660    0.86429    0.12698    1.000
    N2002    N        0.34054    0.78018    0.20788    1.000
    N2003    N        0.33499    0.75715    0.14325    1.000
    N2004    N        0.32383    0.95565    0.18098    1.000
    Si2005   Si       0.29068    0.96099    0.20846    1.000
    Si2006   Si       0.30949    0.99291    0.16025    1.000
    Si2007   Si       0.30302    0.77759    0.28318    1.000
    Si2008   Si       0.29455    0.85153    0.27996    1.000
    N2009    N        0.32853    0.85064    0.30473    1.000
    N2010    N        0.29222    0.76328    0.32165    1.000
    Si2011   Si       0.33196    0.86546    0.34480    1.000
    N2012    N        0.29335    0.87860    0.36150    1.000
    N2013    N        0.29975    0.88249    0.25042    1.000
    Si2014   Si       0.30246    0.96352    0.32554    1.000
    N2015    N        0.32264    0.95633    0.36205    1.000
    N2016    N        0.33073    0.98996    0.30329    1.000
    N2017    N        0.29342    0.92391    0.30939    1.000
    Si2018   Si       0.28529    0.92020    0.26701    1.000
    N2019    N        0.30487    0.95480    0.24838    1.000
    Si2020   Si       0.33028    0.77640    0.46408    1.000
    N2021    N        0.30652    0.84016    0.42086    1.000
    N2022    N        0.28789    0.78211    0.45201    1.000
    Si2023   Si       0.30149    0.87972    0.40430    1.000
    Si2024   Si       0.30543    0.93307    0.44875    1.000
    N2025    N        0.33345    0.91023    0.47200    1.000
    Si2026   Si       0.31847    0.98842    0.39126    1.000
    N2027    N        0.32490    0.96983    0.43181    1.000
    N2028    N        0.33883    0.90128    0.40711    1.000
    N2029    N        0.31365    0.82588    0.55548    1.000
    Si2030   Si       0.32839    0.86530    0.56953    1.000
    N2031    N        0.30111    0.89258    0.58875    1.000
    Si2032   Si       0.31971    0.90941    0.51339    1.000
    N2033    N        0.31495    0.95128    0.52259    1.000
    N2034    N        0.31211    0.84840    0.65218    1.000
    Si2035   Si       0.29429    0.81321    0.72895    1.000
    N2036    N        0.33132    0.80375    0.70875    1.000
    Si2037   Si       0.34199    0.82093    0.67065    1.000
    Si2038   Si       0.32249    0.76059    0.71666    1.000
    N2039    N        0.28333    0.88170    0.70754    1.000
    Si2040   Si       0.29799    0.91985    0.62291    1.000
    Si2041   Si       0.30019    0.92018    0.71529    1.000
    N2042    N        0.33556    0.93277    0.73826    1.000
    N2043    N        0.33818    0.91781    0.63969    1.000
    N2044    N        0.33763    0.99061    0.63435    1.000
    Si2045   Si       0.29668    0.00086    0.62370    1.000
    N2046    N        0.29880    0.95550    0.68768    1.000
    Si2047   Si       0.33744    0.96786    0.67375    1.000
    N2048    N        0.28749    0.77063    0.74330    1.000
    N2049    N        0.30545    0.83372    0.76527    1.000
    Si2050   Si       0.32922    0.78049    0.84310    1.000
    N2051    N        0.32137    0.76467    0.80441    1.000
    N2052    N        0.33709    0.82563    0.83558    1.000
    Si2053   Si       0.32336    0.85180    0.86723    1.000
    N2054    N        0.34155    0.88173    0.79340    1.000
    N2055    N        0.29735    0.93953    0.81204    1.000
    Si2056   Si       0.30815    0.89775    0.81559    1.000
    N2057    N        0.32336    0.89358    0.85650    1.000
    Si2058   Si       0.32868    0.96908    0.81653    1.000
    N2059    N        0.29642    0.99145    0.75501    1.000
    N2060    N        0.29801    0.00189    0.82231    1.000
    N2061    N        0.29368    0.77450    0.86843    1.000
    N2062    N        0.30388    0.81565    0.97758    1.000
    Si2063   Si       0.29696    0.85832    0.98429    1.000
    N2064    N        0.29617    0.87638    0.94509    1.000
    Si2065   Si       0.33915    0.79059    0.98395    1.000
    Si2066   Si       0.29256    0.97108    0.90268    1.000
    Si2067   Si       0.28506    0.97882    0.97169    1.000
    N2068    N        0.32490    0.99213    0.95819    1.000
    Si2069   Si       0.31338    0.91542    0.94577    1.000
    N2070    N        0.31560    0.93730    0.90844    1.000
    Si2071   Si       0.34007    0.83639    0.79159    1.000
    Si2072   Si       0.33449    0.97550    0.74504    1.000
    Si2073   Si       0.38060    0.11336    0.04991    1.000
    Si2074   Si       0.36927    0.01431    0.01742    1.000
    N2075    N        0.37141    0.03001    0.10896    1.000
    N2076    N        0.37210    0.12228    0.00494    1.000
    N2077    N        0.35164    0.19929    0.04444    1.000
    N2078    N        0.38033    0.14756    0.07856    1.000
    Si2079   Si       0.37784    0.22990    0.02662    1.000
    Si2080   Si       0.34673    0.17276    0.07887    1.000
    N2081    N        0.34608    0.19408    0.11622    1.000
    Si2082   Si       0.37489    0.22874    0.11965    1.000
    N2083    N        0.35496    0.08428    0.16187    1.000
    Si2084   Si       0.37975    0.04376    0.15011    1.000
    N2085    N        0.35560    0.12487    0.21602    1.000
    Si2086   Si       0.35553    0.12481    0.17205    1.000
    Si2087   Si       0.38717    0.03111    0.23482    1.000
    N2088    N        0.34416    0.02149    0.16857    1.000
    N2089    N        0.39164    0.22314    0.16084    1.000
    Si2090   Si       0.36481    0.15623    0.24419    1.000
    N2091    N        0.37211    0.18917    0.21769    1.000
    N2092    N        0.38524    0.15289    0.15550    1.000
    Si2093   Si       0.35285    0.22375    0.23499    1.000
    Si2094   Si       0.39803    0.18515    0.18235    1.000
    N2095    N        0.36405    0.05074    0.99436    1.000
    N2096    N        0.37000    0.04625    0.31634    1.000
    N2097    N        0.36750    0.10872    0.31519    1.000
    Si2098   Si       0.39008    0.08022    0.33917    1.000
    Si2099   Si       0.34791    0.07267    0.28987    1.000
    N2100    N        0.36061    0.06222    0.24877    1.000
    N2101    N        0.36544    0.23363    0.33619    1.000
    N2102    N        0.36790    0.22139    0.27510    1.000
    N2103    N        0.35549    0.16791    0.33178    1.000
    Si2104   Si       0.38563    0.19550    0.35870    1.000
    Si2105   Si       0.34704    0.20070    0.30506    1.000
    Si2106   Si       0.39458    0.14470    0.31673    1.000
    N2107    N        0.39842    0.14811    0.27038    1.000
    N2108    N        0.34605    0.01549    0.37243    1.000
    Si2109   Si       0.36404    0.04323    0.48074    1.000
    N2110    N        0.36403    0.03397    0.43806    1.000
    N2111    N        0.38760    0.07392    0.38240    1.000
    Si2112   Si       0.35650    0.05033    0.39893    1.000
    N2113    N        0.37317    0.12689    0.47714    1.000
    N2114    N        0.35713    0.20762    0.39289    1.000
    N2115    N        0.36343    0.12980    0.40996    1.000
    Si2116   Si       0.38768    0.14793    0.44248    1.000
    N2117    N        0.35202    0.24929    0.45051    1.000
    N2118    N        0.38680    0.19021    0.45100    1.000
    Si2119   Si       0.34494    0.24283    0.37274    1.000
    Si2120   Si       0.35124    0.20816    0.43515    1.000
    Si2121   Si       0.35887    0.00734    0.33309    1.000
    N2122    N        0.37439    0.11438    0.54583    1.000
    N2123    N        0.37548    0.10626    0.61619    1.000
    N2124    N        0.37184    0.17285    0.72128    1.000
    N2125    N        0.40012    0.01517    0.61690    1.000
    Si2126   Si       0.35747    0.20863    0.70353    1.000
    N2127    N        0.36809    0.21932    0.51575    1.000
    Si2128   Si       0.34742    0.25537    0.52485    1.000
    N2129    N        0.36866    0.17972    0.62054    1.000
    N2130    N        0.38682    0.05106    0.73417    1.000
    Si2131   Si       0.35421    0.08879    0.64969    1.000
    N2132    N        0.37069    0.05369    0.66810    1.000
    Si2133   Si       0.35500    0.03941    0.70698    1.000
    N2134    N        0.35855    0.12641    0.67336    1.000
    N2135    N        0.34943    0.10828    0.74443    1.000
    Si2136   Si       0.34689    0.13859    0.71308    1.000
    N2137    N        0.35216    0.25032    0.63195    1.000
    N2138    N        0.39370    0.23043    0.69139    1.000
    Si2139   Si       0.38231    0.14187    0.63975    1.000
    N2140    N        0.38644    0.07806    0.79905    1.000
    Si2141   Si       0.38689    0.08728    0.75721    1.000
    Si2142   Si       0.34671    0.07467    0.81531    1.000
    N2143    N        0.34931    0.23570    0.99412    1.000
    N2144    N        0.35805    0.24154    0.86544    1.000
    Si2145   Si       0.38492    0.20601    0.86561    1.000
    Si2146   Si       0.37518    0.14485    0.82088    1.000
    N2147    N        0.36441    0.17051    0.85614    1.000
    N2148    N        0.35946    0.23587    0.79425    1.000
    N2149    N        0.39148    0.16814    0.78489    1.000
    Si2150   Si       0.39568    0.21245    0.79293    1.000
    N2151    N        0.35899    0.04861    0.92525    1.000
    Si2152   Si       0.38539    0.05969    0.95825    1.000
    N2153    N        0.38984    0.01245    0.88063    1.000
    Si2154   Si       0.37332    0.05111    0.88211    1.000
    N2155    N        0.35891    0.14837    0.92481    1.000
    Si2156   Si       0.34695    0.13888    0.96760    1.000
    N2157    N        0.38316    0.32386    0.01961    1.000
    N2158    N        0.38630    0.31702    0.08819    1.000
    Si2159   Si       0.37218    0.29753    0.05217    1.000
    Si2160   Si       0.34800    0.34183    0.00001    1.000
    N2161    N        0.39567    0.26463    0.04273    1.000
    Si2162   Si       0.35584    0.31111    0.11748    1.000
    N2163    N        0.35180    0.26570    0.12391    1.000
    N2164    N        0.37603    0.46560    0.04531    1.000
    N2165    N        0.35934    0.41734    0.10534    1.000
    Si2166   Si       0.37232    0.46836    0.00248    1.000
    Si2167   Si       0.34394    0.49027    0.06447    1.000
    N2168    N        0.36768    0.33057    0.15511    1.000
    Si2169   Si       0.36382    0.29482    0.24037    1.000
    Si2170   Si       0.34375    0.34806    0.18812    1.000
    N2171    N        0.36700    0.25787    0.21400    1.000
    Si2172   Si       0.35103    0.49955    0.17640    1.000
    N2173    N        0.34779    0.45762    0.16570    1.000
    Si2174   Si       0.37607    0.42730    0.18324    1.000
    N2175    N        0.39055    0.43836    0.22322    1.000
    N2176    N        0.35676    0.39017    0.18674    1.000
    N2177    N        0.34293    0.32977    0.22755    1.000
    N2178    N        0.38673    0.29698    0.33107    1.000
    N2179    N        0.34970    0.28560    0.28012    1.000
    Si2180   Si       0.38035    0.25959    0.30105    1.000
    Si2181   Si       0.34671    0.31264    0.31306    1.000
    N2182    N        0.36454    0.38970    0.35053    1.000
    N2183    N        0.36304    0.47488    0.27736    1.000
    N2184    N        0.37384    0.40603    0.28471    1.000
    Si2185   Si       0.36924    0.47986    0.32094    1.000
    Si2186   Si       0.36302    0.43721    0.25534    1.000
    Si2187   Si       0.34424    0.38854    0.31143    1.000
    Si2188   Si       0.37634    0.31062    0.37197    1.000
    Si2189   Si       0.35863    0.33887    0.45437    1.000
    N2190    N        0.36869    0.27250    0.39071    1.000
    N2191    N        0.37093    0.37122    0.42604    1.000
    Si2192   Si       0.38428    0.27189    0.43130    1.000
    N2193    N        0.39129    0.31467    0.43592    1.000
    Si2194   Si       0.34542    0.37434    0.38784    1.000
    N2195    N        0.36618    0.35385    0.49282    1.000
    Si2196   Si       0.37910    0.41396    0.43786    1.000
    N2197    N        0.35240    0.41766    0.47126    1.000
    Si2198   Si       0.34138    0.44373    0.38448    1.000
    N2199    N        0.37991    0.44498    0.40665    1.000
    N2200    N        0.35315    0.50877    0.45297    1.000
    N2201    N        0.37395    0.28888    0.51550    1.000
    Si2202   Si       0.36326    0.32994    0.52864    1.000
    N2203    N        0.34579    0.31973    0.61306    1.000
    N2204    N        0.35122    0.45057    0.55764    1.000
    Si2205   Si       0.38961    0.43122    0.56227    1.000
    Si2206   Si       0.36449    0.39491    0.50525    1.000
    N2207    N        0.37287    0.50105    0.51900    1.000
    Si2208   Si       0.39709    0.49987    0.55513    1.000
    N2209    N        0.39902    0.40782    0.52501    1.000
    N2210    N        0.38613    0.29513    0.67065    1.000
    Si2211   Si       0.38144    0.32756    0.63946    1.000
    N2212    N        0.35504    0.33730    0.71923    1.000
    N2213    N        0.37244    0.36560    0.65940    1.000
    Si2214   Si       0.38787    0.30800    0.71110    1.000
    N2215    N        0.38367    0.27701    0.74319    1.000
    Si2216   Si       0.33892    0.36679    0.69029    1.000
    Si2217   Si       0.38890    0.25459    0.65671    1.000
    Si2218   Si       0.35628    0.46711    0.66695    1.000
    Si2219   Si       0.34529    0.43999    0.73237    1.000
    N2220    N        0.39153    0.48339    0.64752    1.000
    Si2221   Si       0.36882    0.50693    0.73212    1.000
    N2222    N        0.36595    0.46951    0.70948    1.000
    N2223    N        0.35049    0.42851    0.64739    1.000
    Si2224   Si       0.38484    0.40361    0.64348    1.000
    N2225    N        0.39939    0.41277    0.60262    1.000
    N2226    N        0.37511    0.32639    0.78887    1.000
    Si2227   Si       0.37374    0.34778    0.82678    1.000
    Si2228   Si       0.34874    0.25833    0.75714    1.000
    N2229    N        0.38796    0.38836    0.81700    1.000
    Si2230   Si       0.38935    0.47824    0.86454    1.000
    N2231    N        0.37905    0.43357    0.76166    1.000
    N2232    N        0.37130    0.45912    0.82956    1.000
    Si2233   Si       0.37099    0.42551    0.80358    1.000
    N2234    N        0.35040    0.30988    0.89095    1.000
    Si2235   Si       0.36253    0.27023    0.89651    1.000
    N2236    N        0.38498    0.34017    0.92994    1.000
    N2237    N        0.36309    0.37874    0.98008    1.000
    Si2238   Si       0.34502    0.32630    0.93302    1.000
    N2239    N        0.34593    0.42364    0.93347    1.000
    N2240    N        0.39283    0.46491    0.90571    1.000
    Si2241   Si       0.38782    0.43630    0.93602    1.000
    Si2242   Si       0.39986    0.37054    0.95600    1.000
    Si2243   Si       0.34228    0.33193    0.76072    1.000
    N2244    N        0.36927    0.51000    0.99523    1.000
    N2245    N        0.36347    0.52881    0.07670    1.000
    Si2246   Si       0.35840    0.58906    0.01369    1.000
    N2247    N        0.39846    0.57334    0.01621    1.000
    N2248    N        0.36183    0.62977    0.99596    1.000
    N2249    N        0.38468    0.63708    0.10083    1.000
    N2250    N        0.35506    0.71780    0.08447    1.000
    Si2251   Si       0.36809    0.67007    0.00522    1.000
    Si2252   Si       0.39585    0.71347    0.06947    1.000
    N2253    N        0.39799    0.68375    0.03672    1.000
    N2254    N        0.38873    0.52205    0.18249    1.000
    Si2255   Si       0.38587    0.55510    0.20996    1.000
    Si2256   Si       0.38868    0.62597    0.23478    1.000
    N2257    N        0.38158    0.66452    0.21862    1.000
    Si2258   Si       0.35674    0.69221    0.24261    1.000
    Si2259   Si       0.34592    0.63130    0.11722    1.000
    Si2260   Si       0.34341    0.75676    0.10012    1.000
    N2261    N        0.37684    0.52196    0.32402    1.000
    N2262    N        0.36112    0.62179    0.32319    1.000
    N2263    N        0.38841    0.53586    0.25088    1.000
    N2264    N        0.36067    0.60182    0.25715    1.000
    Si2265   Si       0.36000    0.61404    0.36654    1.000
    Si2266   Si       0.37204    0.53388    0.36441    1.000
    Si2267   Si       0.38491    0.60630    0.29295    1.000
    Si2268   Si       0.35299    0.51093    0.25717    1.000
    N2269    N        0.38252    0.57794    0.36711    1.000
    N2270    N        0.38002    0.72429    0.25790    1.000
    Si2271   Si       0.36598    0.69582    0.35330    1.000
    Si2272   Si       0.37357    0.74495    0.29561    1.000
    N2273    N        0.34955    0.72336    0.32413    1.000
    N2274    N        0.34130    0.66820    0.27347    1.000
    Si2275   Si       0.38496    0.60229    0.42804    1.000
    Si2276   Si       0.38296    0.51560    0.48040    1.000
    N2277    N        0.34527    0.58132    0.43709    1.000
    N2278    N        0.39813    0.62232    0.46555    1.000
    N2279    N        0.36250    0.71521    0.39385    1.000
    Si2280   Si       0.37628    0.75488    0.40529    1.000
    N2281    N        0.38124    0.68502    0.45249    1.000
    Si2282   Si       0.35855    0.67653    0.41725    1.000
    N2283    N        0.37695    0.63646    0.40129    1.000
    Si2284   Si       0.37906    0.72473    0.46954    1.000
    Si2285   Si       0.38612    0.61109    0.50554    1.000
    N2286    N        0.36856    0.51363    0.58705    1.000
    N2287    N        0.34491    0.59709    0.50236    1.000
    N2288    N        0.38446    0.71189    0.56592    1.000
    N2289    N        0.37305    0.64722    0.52709    1.000
    N2290    N        0.36659    0.66593    0.60103    1.000
    Si2291   Si       0.38712    0.66778    0.56222    1.000
    Si2292   Si       0.38762    0.74699    0.54295    1.000
    Si2293   Si       0.36444    0.71051    0.60392    1.000
    Si2294   Si       0.38731    0.52000    0.62560    1.000
    N2295    N        0.36298    0.55160    0.64650    1.000
    N2296    N        0.39306    0.61438    0.65209    1.000
    N2297    N        0.34820    0.53971    0.71359    1.000
    Si2298   Si       0.39835    0.57283    0.65865    1.000
    Si2299   Si       0.36325    0.64200    0.63615    1.000
    N2300    N        0.39131    0.72930    0.63374    1.000
    Si2301   Si       0.39528    0.67455    0.73182    1.000
    N2302    N        0.35439    0.74579    0.74326    1.000
    Si2303   Si       0.39326    0.74999    0.72204    1.000
    N2304    N        0.35399    0.66378    0.73431    1.000
    N2305    N        0.36015    0.67171    0.66816    1.000
    Si2306   Si       0.39550    0.69902    0.66531    1.000
    N2307    N        0.39982    0.74423    0.50180    1.000
    N2308    N        0.36298    0.59200    0.85490    1.000
    N2309    N        0.35613    0.57047    0.78468    1.000
    Si2310   Si       0.38743    0.55582    0.85709    1.000
    Si2311   Si       0.39640    0.55382    0.77917    1.000
    N2312    N        0.36975    0.51698    0.86497    1.000
    Si2313   Si       0.34334    0.59716    0.81607    1.000
    Si2314   Si       0.34668    0.71718    0.94184    1.000
    Si2315   Si       0.38470    0.65991    0.80958    1.000
    N2316    N        0.38702    0.68683    0.84534    1.000
    N2317    N        0.38580    0.74194    0.80539    1.000
    N2318    N        0.35092    0.63796    0.80291    1.000
    Si2319   Si       0.34739    0.73673    0.78493    1.000
    N2320    N        0.38963    0.54790    0.95307    1.000
    N2321    N        0.36229    0.60516    0.92670    1.000
    Si2322   Si       0.36541    0.62304    0.88711    1.000
    Si2323   Si       0.34857    0.53328    0.96110    1.000
    N2324    N        0.36677    0.72043    0.90384    1.000
    Si2325   Si       0.35241    0.69498    0.87177    1.000
    Si2326   Si       0.39846    0.58052    0.92836    1.000
    N2327    N        0.37325    0.69374    0.96787    1.000
    N2328    N        0.35173    0.75575    0.95927    1.000
    N2329    N        0.37071    0.78627    0.08963    1.000
    Si2330   Si       0.38020    0.78623    0.04694    1.000
    Si2331   Si       0.36639    0.82672    0.10380    1.000
    N2332    N        0.34059    0.78763    0.02969    1.000
    Si2333   Si       0.40080    0.88238    0.13361    1.000
    N2334    N        0.33905    0.84372    0.07400    1.000
    N2335    N        0.35674    0.96006    0.08229    1.000
    N2336    N        0.36846    0.90726    0.03868    1.000
    Si2337   Si       0.35493    0.92326    0.10332    1.000
    Si2338   Si       0.37709    0.94989    0.04581    1.000
    N2339    N        0.36629    0.97175    0.00756    1.000
    Si2340   Si       0.36485    0.89355    0.99452    1.000
    Si2341   Si       0.34667    0.00060    0.08901    1.000
    N2342    N        0.35465    0.89801    0.21568    1.000
    Si2343   Si       0.35552    0.78880    0.16766    1.000
    Si2344   Si       0.36011    0.79415    0.24283    1.000
    N2345    N        0.39775    0.79754    0.17916    1.000
    N2346    N        0.34649    0.82532    0.14266    1.000
    N2347    N        0.35432    0.83530    0.24639    1.000
    N2348    N        0.38824    0.95191    0.17771    1.000
    Si2349   Si       0.35395    0.92325    0.18056    1.000
    N2350    N        0.36342    0.99369    0.23417    1.000
    Si2351   Si       0.37083    0.98986    0.19080    1.000
    N2352    N        0.35462    0.89477    0.14466    1.000
    Si2353   Si       0.36668    0.84474    0.28673    1.000
    Si2354   Si       0.38767    0.81865    0.35503    1.000
    N2355    N        0.34635    0.77691    0.28060    1.000
    N2356    N        0.39225    0.82127    0.31166    1.000
    N2357    N        0.39092    0.87937    0.27838    1.000
    N2358    N        0.34884    0.83436    0.36855    1.000
    N2359    N        0.36867    0.93738    0.27464    1.000
    N2360    N        0.35887    0.90074    0.33908    1.000
    Si2361   Si       0.38668    0.91216    0.30672    1.000
    Si2362   Si       0.34233    0.97025    0.26383    1.000
    N2363    N        0.39865    0.99044    0.32903    1.000
    Si2364   Si       0.38557    0.90810    0.24673    1.000
    N2365    N        0.39958    0.90382    0.44200    1.000
    N2366    N        0.39395    0.77791    0.37414    1.000
    Si2367   Si       0.38548    0.83157    0.47233    1.000
    N2368    N        0.37173    0.85015    0.43444    1.000
    N2369    N        0.34955    0.78177    0.42511    1.000
    N2370    N        0.35217    0.80770    0.49116    1.000
    Si2371   Si       0.34604    0.82379    0.41138    1.000
    N2372    N        0.40052    0.86609    0.49433    1.000
    Si2373   Si       0.35896    0.89120    0.44350    1.000
    N2374    N        0.39197    0.97465    0.45510    1.000
    N2375    N        0.34524    0.00467    0.49159    1.000
    N2376    N        0.39053    0.94804    0.38724    1.000
    Si2377   Si       0.35243    0.92618    0.37288    1.000
    Si2378   Si       0.35282    0.99485    0.44999    1.000
    N2379    N        0.38200    0.82996    0.54776    1.000
    Si2380   Si       0.38780    0.87157    0.53613    1.000
    N2381    N        0.36279    0.86725    0.59923    1.000
    N2382    N        0.34901    0.76663    0.55042    1.000
    Si2383   Si       0.34595    0.80700    0.53422    1.000
    N2384    N        0.37470    0.95436    0.59099    1.000
    Si2385   Si       0.36444    0.99599    0.59906    1.000
    N2386    N        0.38854    0.96838    0.52581    1.000
    Si2387   Si       0.34608    0.98102    0.52768    1.000
    N2388    N        0.34046    0.00739    0.56247    1.000
    N2389    N        0.34636    0.88443    0.53437    1.000
    N2390    N        0.37191    0.85050    0.66624    1.000
    N2391    N        0.37644    0.87298    0.73430    1.000
    Si2392   Si       0.38423    0.77060    0.64772    1.000
    Si2393   Si       0.34660    0.87266    0.63872    1.000
    N2394    N        0.34329    0.78527    0.64719    1.000
    N2395    N        0.37979    0.95522    0.67147    1.000
    Si2396   Si       0.37445    0.93696    0.63064    1.000
    N2397    N        0.35088    0.99529    0.70888    1.000
    N2398    N        0.40044    0.77405    0.68692    1.000
    Si2399   Si       0.39781    0.86054    0.69789    1.000
    N2400    N        0.37670    0.81728    0.78105    1.000
    Si2401   Si       0.37642    0.82081    0.85607    1.000
    N2402    N        0.36686    0.77939    0.86531    1.000
    Si2403   Si       0.35780    0.96539    0.96474    1.000
    N2404    N        0.35105    0.92205    0.96629    1.000
    N2405    N        0.35541    0.96007    0.85110    1.000
    Si2406   Si       0.36038    0.90392    0.75925    1.000
    N2407    N        0.35299    0.98153    0.78339    1.000
    Si2408   Si       0.39364    0.97837    0.85444    1.000
    Si2409   Si       0.39598    0.97065    0.78147    1.000
    N2410    N        0.39389    0.92746    0.77870    1.000
    N2411    N        0.35870    0.84535    0.89145    1.000
    Si2412   Si       0.39421    0.76755    0.96357    1.000
    Si2413   Si       0.39720    0.86884    0.89167    1.000
    N2414    N        0.38117    0.80302    0.98325    1.000
    Si2415   Si       0.39040    0.75581    0.89225    1.000
    N2416    N        0.38999    0.97276    0.93634    1.000
    N2417    N        0.38318    0.90936    0.89103    1.000
    Si2418   Si       0.34429    0.92523    0.87698    1.000
    Si2419   Si       0.40078    0.84422    0.75768    1.000
    Si2420   Si       0.44752    0.08427    0.03767    1.000
    N2421    N        0.43730    0.02306    0.08726    1.000
    N2422    N        0.43885    0.11895    0.01280    1.000
    Si2423   Si       0.40863    0.05420    0.09456    1.000
    N2424    N        0.41122    0.08338    0.06158    1.000
    N2425    N        0.41317    0.01546    0.02343    1.000
    Si2426   Si       0.45049    0.01826    0.00068    1.000
    N2427    N        0.46089    0.06062    0.19500    1.000
    N2428    N        0.41480    0.22176    0.00516    1.000
    Si2429   Si       0.44603    0.23150    0.09091    1.000
    N2430    N        0.40801    0.21273    0.09712    1.000
    Si2431   Si       0.40111    0.16779    0.11461    1.000
    Si2432   Si       0.44950    0.07894    0.15692    1.000
    N2433    N        0.41376    0.06648    0.13729    1.000
    Si2434   Si       0.44498    0.02021    0.18878    1.000
    N2435    N        0.44945    0.11717    0.17753    1.000
    N2436    N        0.40058    0.02384    0.19170    1.000
    N2437    N        0.43431    0.24483    0.21586    1.000
    Si2438   Si       0.45748    0.20917    0.22248    1.000
    N2439    N        0.44336    0.16529    0.12680    1.000
    N2440    N        0.43925    0.18100    0.19674    1.000
    Si2441   Si       0.40231    0.25487    0.18867    1.000
    N2442    N        0.42940    0.05816    0.33172    1.000
    N2443    N        0.41839    0.03514    0.26485    1.000
    Si2444   Si       0.41660    0.02392    0.30776    1.000
    N2445    N        0.41304    0.12821    0.35474    1.000
    N2446    N        0.45559    0.13454    0.30362    1.000
    Si2447   Si       0.43476    0.21736    0.30012    1.000
    N2448    N        0.41193    0.18750    0.32434    1.000
    Si2449   Si       0.44219    0.15260    0.26744    1.000
    N2450    N        0.44830    0.19567    0.26237    1.000
    Si2451   Si       0.45549    0.13201    0.34563    1.000
    N2452    N        0.42171    0.25585    0.28762    1.000
    N2453    N        0.42536    0.13346    0.42724    1.000
    Si2454   Si       0.40119    0.20093    0.49537    1.000
    Si2455   Si       0.44846    0.25666    0.47754    1.000
    N2456    N        0.41921    0.20218    0.38523    1.000
    N2457    N        0.42132    0.25226    0.44243    1.000
    Si2458   Si       0.42173    0.20952    0.42791    1.000
    Si2459   Si       0.40119    0.11406    0.39453    1.000
    Si2460   Si       0.42711    0.05672    0.52543    1.000
    Si2461   Si       0.43134    0.03955    0.59876    1.000
    N2462    N        0.41287    0.06218    0.56620    1.000
    N2463    N        0.43608    0.09774    0.50956    1.000
    N2464    N        0.43106    0.13282    0.57922    1.000
    Si2465   Si       0.39944    0.10163    0.58008    1.000
    Si2466   Si       0.42524    0.16746    0.55597    1.000
    N2467    N        0.41647    0.20300    0.57705    1.000
    Si2468   Si       0.43369    0.24134    0.58733    1.000
    N2469    N        0.41074    0.16460    0.51597    1.000
    N2470    N        0.44085    0.22047    0.49891    1.000
    N2471    N        0.45186    0.11509    0.68062    1.000
    Si2472   Si       0.42235    0.02827    0.72768    1.000
    N2473    N        0.43326    0.06749    0.63559    1.000
    Si2474   Si       0.45135    0.09857    0.72178    1.000
    Si2475   Si       0.40753    0.03573    0.65353    1.000
    N2476    N        0.45387    0.05687    0.73004    1.000
    N2477    N        0.41507    0.11582    0.74197    1.000
    N2478    N        0.42092    0.01060    0.68696    1.000
    N2479    N        0.40249    0.03357    0.49880    1.000
    N2480    N        0.43756    0.17950    0.71621    1.000
    Si2481   Si       0.41041    0.19302    0.61963    1.000
    N2482    N        0.45471    0.25151    0.70715    1.000
    Si2483   Si       0.42530    0.22251    0.72007    1.000
    Si2484   Si       0.45192    0.15979    0.67972    1.000
    N2485    N        0.41728    0.23886    0.62737    1.000
    N2486    N        0.41907    0.16395    0.64998    1.000
    Si2487   Si       0.39990    0.12381    0.51166    1.000
    Si2488   Si       0.41251    0.08168    0.83448    1.000
    N2489    N        0.44588    0.05402    0.82665    1.000
    N2490    N        0.41466    0.12745    0.83347    1.000
    Si2491   Si       0.44821    0.01329    0.81448    1.000
    Si2492   Si       0.44762    0.13976    0.85905    1.000
    N2493    N        0.41484    0.21225    0.83253    1.000
    N2494    N        0.42727    0.22732    0.76553    1.000
    Si2495   Si       0.45726    0.21244    0.84513    1.000
    Si2496   Si       0.45906    0.25369    0.78380    1.000
    N2497    N        0.40803    0.07622    0.87839    1.000
    Si2498   Si       0.42791    0.09620    0.91166    1.000
    N2499    N        0.42062    0.03183    0.95303    1.000
    Si2500   Si       0.41023    0.12479    0.98166    1.000
    N2501    N        0.40288    0.09830    0.94783    1.000
    N2502    N        0.40307    0.20188    0.90392    1.000
    Si2503   Si       0.40013    0.15925    0.92180    1.000
    N2504    N        0.44922    0.23186    0.95106    1.000
    N2505    N        0.41080    0.16470    0.96410    1.000
    Si2506   Si       0.42743    0.23563    0.91437    1.000
    Si2507   Si       0.43609    0.19940    0.97657    1.000
    N2508    N        0.42847    0.13873    0.89920    1.000
    Si2509   Si       0.40827    0.15960    0.74293    1.000
    N2510    N        0.44391    0.33649    0.04883    1.000
    Si2511   Si       0.42632    0.32570    0.00964    1.000
    Si2512   Si       0.42083    0.34176    0.08750    1.000
    N2513    N        0.44698    0.26899    0.10795    1.000
    N2514    N        0.44509    0.28949    0.99621    1.000
    N2515    N        0.45406    0.41585    0.21211    1.000
    N2516    N        0.42394    0.38476    0.09866    1.000
    Si2517   Si       0.41953    0.46456    0.05488    1.000
    N2518    N        0.42771    0.45020    0.09469    1.000
    N2519    N        0.44922    0.45013    0.02475    1.000
    Si2520   Si       0.40202    0.41895    0.11199    1.000
    Si2521   Si       0.45036    0.47977    0.11831    1.000
    N2522    N        0.43827    0.33313    0.12921    1.000
    N2523    N        0.42962    0.34896    0.19918    1.000
    N2524    N        0.42047    0.28957    0.16988    1.000
    Si2525   Si       0.40892    0.33037    0.16506    1.000
    Si2526   Si       0.45425    0.29356    0.14205    1.000
    Si2527   Si       0.43275    0.33610    0.24026    1.000
    N2528    N        0.40708    0.42488    0.15468    1.000
    N2529    N        0.44938    0.48456    0.23032    1.000
    Si2530   Si       0.43370    0.44534    0.23704    1.000
    Si2531   Si       0.44811    0.42816    0.17068    1.000
    N2532    N        0.46094    0.46569    0.16125    1.000
    Si2533   Si       0.43422    0.25665    0.02281    1.000
    Si2534   Si       0.43232    0.31173    0.34513    1.000
    N2535    N        0.44118    0.36775    0.26776    1.000
    Si2536   Si       0.43394    0.27368    0.24858    1.000
    Si2537   Si       0.40815    0.38079    0.36070    1.000
    N2538    N        0.43253    0.38766    0.32566    1.000
    N2539    N        0.40332    0.30544    0.24276    1.000
    N2540    N        0.43660    0.43781    0.27979    1.000
    Si2541   Si       0.44050    0.46601    0.31331    1.000
    Si2542   Si       0.41760    0.39909    0.28527    1.000
    N2543    N        0.40629    0.46415    0.34120    1.000
    N2544    N        0.40879    0.33854    0.37252    1.000
    Si2545   Si       0.41420    0.34982    0.41703    1.000
    N2546    N        0.45412    0.33788    0.43529    1.000
    N2547    N        0.44671    0.45748    0.39827    1.000
    N2548    N        0.41821    0.41466    0.45696    1.000
    Si2549   Si       0.44588    0.42252    0.42359    1.000
    N2550    N        0.42881    0.39089    0.39869    1.000
    Si2551   Si       0.40812    0.47112    0.38325    1.000
    N2552    N        0.42952    0.27884    0.56690    1.000
    Si2553   Si       0.43066    0.32163    0.57951    1.000
    Si2554   Si       0.41303    0.29347    0.53023    1.000
    N2555    N        0.40165    0.33208    0.54986    1.000
    N2556    N        0.45377    0.37010    0.50245    1.000
    N2557    N        0.44102    0.29617    0.49638    1.000
    N2558    N        0.41878    0.46327    0.55754    1.000
    Si2559   Si       0.44389    0.41530    0.60390    1.000
    N2560    N        0.45365    0.45664    0.61574    1.000
    Si2561   Si       0.42997    0.46498    0.65329    1.000
    N2562    N        0.41838    0.33136    0.62015    1.000
    N2563    N        0.43293    0.39663    0.72515    1.000
    Si2564   Si       0.45433    0.34492    0.64330    1.000
    Si2565   Si       0.44917    0.35648    0.72741    1.000
    N2566    N        0.41951    0.32717    0.73498    1.000
    Si2567   Si       0.45410    0.39849    0.67836    1.000
    N2568    N        0.41730    0.42413    0.66550    1.000
    Si2569   Si       0.45834    0.44968    0.54737    1.000
    N2570    N        0.45902    0.38703    0.63389    1.000
    N2571    N        0.45881    0.40977    0.56281    1.000
    N2572    N        0.44302    0.46279    0.74580    1.000
    Si2573   Si       0.43283    0.40953    0.49802    1.000
    N2574    N        0.43751    0.29108    0.79548    1.000
    Si2575   Si       0.44080    0.31707    0.83229    1.000
    Si2576   Si       0.40597    0.30342    0.76969    1.000
    N2577    N        0.45578    0.35511    0.81687    1.000
    N2578    N        0.40263    0.32658    0.85332    1.000
    Si2579   Si       0.43169    0.39219    0.82167    1.000
    N2580    N        0.44250    0.42055    0.79084    1.000
    N2581    N        0.43086    0.47929    0.85319    1.000
    N2582    N        0.43688    0.41065    0.86161    1.000
    Si2583   Si       0.42129    0.42586    0.75185    1.000
    Si2584   Si       0.44608    0.45245    0.98037    1.000
    N2585    N        0.45728    0.49867    0.79440    1.000
    Si2586   Si       0.44419    0.50436    0.75439    1.000
    Si2587   Si       0.45889    0.44832    0.86310    1.000
    N2588    N        0.43208    0.35844    0.98115    1.000
    N2589    N        0.44217    0.34264    0.90396    1.000
    N2590    N        0.40426    0.27491    0.90620    1.000
    Si2591   Si       0.40532    0.31857    0.89577    1.000
    Si2592   Si       0.44138    0.38707    0.89741    1.000
    N2593    N        0.41195    0.40016    0.92767    1.000
    N2594    N        0.40190    0.44927    0.97434    1.000
    N2595    N        0.41417    0.57365    0.08563    1.000
    N2596    N        0.43110    0.62203    0.03849    1.000
    Si2597   Si       0.44192    0.58337    0.02034    1.000
    Si2598   Si       0.40642    0.53114    0.08372    1.000
    Si2599   Si       0.44486    0.58337    0.11458    1.000
    N2600    N        0.44633    0.53996    0.99855    1.000
    Si2601   Si       0.40940    0.61325    0.07421    1.000
    N2602    N        0.44543    0.62736    0.10336    1.000
    N2603    N        0.43194    0.50732    0.05673    1.000
    N2604    N        0.42100    0.69601    0.10114    1.000
    Si2605   Si       0.43585    0.66385    0.02966    1.000
    N2606    N        0.40808    0.75153    0.05097    1.000
    N2607    N        0.42203    0.51368    0.12145    1.000
    Si2608   Si       0.42266    0.53511    0.15876    1.000
    N2609    N        0.42280    0.57801    0.15084    1.000
    Si2610   Si       0.43223    0.60914    0.17811    1.000
    N2611    N        0.40766    0.59420    0.21095    1.000
    N2612    N        0.45478    0.74656    0.13441    1.000
    Si2613   Si       0.41779    0.67771    0.19910    1.000
    N2614    N        0.42546    0.72050    0.19742    1.000
    Si2615   Si       0.41471    0.74058    0.23587    1.000
    N2616    N        0.45180    0.66487    0.22278    1.000
    Si2617   Si       0.41646    0.65758    0.12072    1.000
    Si2618   Si       0.45640    0.74366    0.17743    1.000
    N2619    N        0.41969    0.64946    0.16354    1.000
    N2620    N        0.45969    0.53209    0.18173    1.000
    Si2621   Si       0.41949    0.58361    0.34540    1.000
    N2622    N        0.41282    0.57665    0.30505    1.000
    N2623    N        0.43235    0.62303    0.35422    1.000
    N2624    N        0.45268    0.55913    0.36214    1.000
    Si2625   Si       0.40490    0.53613    0.29201    1.000
    N2626    N        0.41395    0.63199    0.27077    1.000
    N2627    N        0.43414    0.50415    0.29179    1.000
    N2628    N        0.44836    0.72978    0.25881    1.000
    Si2629   Si       0.45638    0.64346    0.25973    1.000
    N2630    N        0.40618    0.68494    0.35624    1.000
    N2631    N        0.44976    0.66647    0.48171    1.000
    Si2632   Si       0.44442    0.74217    0.41814    1.000
    N2633    N        0.41940    0.54018    0.48611    1.000
    N2634    N        0.41564    0.57332    0.42362    1.000
    Si2635   Si       0.43320    0.54232    0.39725    1.000
    Si2636   Si       0.44335    0.55914    0.45402    1.000
    N2637    N        0.40385    0.51436    0.38654    1.000
    N2638    N        0.46042    0.53070    0.42747    1.000
    N2639    N        0.45186    0.73436    0.37583    1.000
    Si2640   Si       0.43421    0.66033    0.37676    1.000
    N2641    N        0.40466    0.74749    0.44062    1.000
    N2642    N        0.43790    0.66598    0.41882    1.000
    Si2643   Si       0.41568    0.65998    0.45476    1.000
    N2644    N        0.42787    0.52929    0.56278    1.000
    Si2645   Si       0.43210    0.55020    0.52685    1.000
    Si2646   Si       0.44175    0.61570    0.55226    1.000
    N2647    N        0.41484    0.59184    0.53056    1.000
    Si2648   Si       0.44987    0.54809    0.59557    1.000
    N2649    N        0.45393    0.58983    0.58696    1.000
    Si2650   Si       0.44166    0.67275    0.60595    1.000
    N2651    N        0.42689    0.65316    0.56982    1.000
    N2652    N        0.44900    0.71594    0.59992    1.000
    Si2653   Si       0.42721    0.75455    0.60507    1.000
    N2654    N        0.40243    0.70911    0.70748    1.000
    Si2655   Si       0.45040    0.53533    0.66859    1.000
    N2656    N        0.42463    0.56331    0.69082    1.000
    N2657    N        0.42536    0.54501    0.63123    1.000
    Si2658   Si       0.44768    0.57119    0.72600    1.000
    Si2659   Si       0.42607    0.63567    0.67037    1.000
    N2660    N        0.42547    0.64535    0.71311    1.000
    N2661    N        0.42406    0.67210    0.64690    1.000
    N2662    N        0.42275    0.58411    0.76061    1.000
    Si2663   Si       0.44084    0.60661    0.79197    1.000
    Si2664   Si       0.43867    0.51501    0.82950    1.000
    N2665    N        0.40777    0.54466    0.81930    1.000
    N2666    N        0.41847    0.63237    0.81955    1.000
    Si2667   Si       0.44483    0.67950    0.78335    1.000
    N2668    N        0.44614    0.69356    0.82380    1.000
    Si2669   Si       0.41295    0.72211    0.83500    1.000
    Si2670   Si       0.42357    0.66206    0.85418    1.000
    N2671    N        0.40434    0.67704    0.77464    1.000
    N2672    N        0.42610    0.61046    0.94171    1.000
    N2673    N        0.41412    0.56419    0.89092    1.000
    Si2674   Si       0.45568    0.55793    0.88774    1.000
    Si2675   Si       0.40338    0.53836    0.99223    1.000
    Si2676   Si       0.45281    0.63144    0.96783    1.000
    Si2677   Si       0.44517    0.62969    0.90557    1.000
    Si2678   Si       0.41855    0.70036    0.96739    1.000
    N2679    N        0.40659    0.63890    0.88631    1.000
    N2680    N        0.44021    0.70662    0.93041    1.000
    N2681    N        0.42381    0.73932    0.87383    1.000
    Si2682   Si       0.45304    0.74851    0.91058    1.000
    N2683    N        0.42218    0.73991    0.98361    1.000
    N2684    N        0.43641    0.66553    0.98656    1.000
    N2685    N        0.40324    0.51956    0.75364    1.000
    Si2686   Si       0.43216    0.84092    0.07412    1.000
    Si2687   Si       0.44373    0.77773    0.05091    1.000
    N2688    N        0.41142    0.81620    0.04244    1.000
    Si2689   Si       0.41145    0.82906    0.99992    1.000
    N2690    N        0.40439    0.84855    0.10686    1.000
    N2691    N        0.44817    0.88437    0.06354    1.000
    N2692    N        0.41922    0.95388    0.05548    1.000
    Si2693   Si       0.43647    0.92353    0.08295    1.000
    Si2694   Si       0.43488    0.99395    0.05465    1.000
    N2695    N        0.44319    0.84222    0.21673    1.000
    Si2696   Si       0.42586    0.80399    0.20930    1.000
    N2697    N        0.42449    0.91693    0.22763    1.000
    N2698    N        0.42798    0.88982    0.16783    1.000
    Si2699   Si       0.42495    0.92833    0.18514    1.000
    N2700    N        0.45331    0.99765    0.22378    1.000
    N2701    N        0.46208    0.80888    0.08197    1.000
    N2702    N        0.39880    0.91811    0.10873    1.000
    Si2703   Si       0.41733    0.79441    0.28606    1.000
    Si2704   Si       0.42865    0.76385    0.35235    1.000
    Si2705   Si       0.45578    0.85042    0.36629    1.000
    N2706    N        0.40425    0.78511    0.24448    1.000
    Si2707   Si       0.40901    0.98848    0.49305    1.000
    N2708    N        0.42412    0.92744    0.32543    1.000
    Si2709   Si       0.41327    0.95999    0.35315    1.000
    N2710    N        0.45969    0.00736    0.30283    1.000
    N2711    N        0.41493    0.84328    0.37676    1.000
    N2712    N        0.41986    0.81086    0.46300    1.000
    Si2713   Si       0.41063    0.86546    0.41626    1.000
    N2714    N        0.44593    0.86377    0.44078    1.000
    Si2715   Si       0.42290    0.76921    0.47573    1.000
    Si2716   Si       0.42990    0.89069    0.47177    1.000
    Si2717   Si       0.40703    0.94496    0.42790    1.000
    N2718    N        0.44982    0.97635    0.49559    1.000
    N2719    N        0.45093    0.94230    0.43332    1.000
    N2720    N        0.41168    0.75747    0.31164    1.000
    N2721    N        0.42970    0.84798    0.59049    1.000
    N2722    N        0.42049    0.77241    0.55989    1.000
    Si2723   Si       0.40756    0.81130    0.57837    1.000
    Si2724   Si       0.40388    0.88128    0.59564    1.000
    N2725    N        0.40242    0.79099    0.61500    1.000
    N2726    N        0.44214    0.96561    0.56644    1.000
    N2727    N        0.40849    0.90265    0.55804    1.000
    Si2728   Si       0.40290    0.94627    0.56105    1.000
    N2729    N        0.44044    0.94788    0.69758    1.000
    N2730    N        0.41794    0.82727    0.72056    1.000
    Si2731   Si       0.43795    0.79802    0.69396    1.000
    N2732    N        0.41104    0.98886    0.74540    1.000
    Si2733   Si       0.43560    0.92176    0.65954    1.000
    N2734    N        0.42950    0.88473    0.68562    1.000
    N2735    N        0.40640    0.90771    0.62907    1.000
    N2736    N        0.44528    0.95998    0.63795    1.000
    Si2737   Si       0.40218    0.97287    0.70449    1.000
    Si2738   Si       0.45469    0.98308    0.67226    1.000
    Si2739   Si       0.44015    0.85703    0.82592    1.000
    N2740    N        0.42473    0.86452    0.78605    1.000
    N2741    N        0.43108    0.79128    0.81873    1.000
    N2742    N        0.41007    0.84762    0.85372    1.000
    N2743    N        0.41748    0.76532    0.75321    1.000
    Si2744   Si       0.40067    0.78039    0.79081    1.000
    N2745    N        0.42407    0.95918    0.88105    1.000
    Si2746   Si       0.43290    0.90776    0.78775    1.000
    N2747    N        0.41359    0.98806    0.81742    1.000
    N2748    N        0.45098    0.90106    0.82801    1.000
    N2749    N        0.41190    0.77500    0.92594    1.000
    Si2750   Si       0.43550    0.81438    0.93040    1.000
    N2751    N        0.42291    0.85542    0.92248    1.000
    N2752    N        0.44511    0.82384    0.97204    1.000
    N2753    N        0.39841    0.86946    0.98801    1.000
    Si2754   Si       0.43418    0.87559    0.96117    1.000
    N2755    N        0.45588    0.00651    0.90769    1.000
    Si2756   Si       0.41197    0.00585    0.91660    1.000
    N2757    N        0.43005    0.91684    0.94575    1.000
    Si2758   Si       0.40766    0.93839    0.91621    1.000
    Si2759   Si       0.49769    0.09736    0.09489    1.000
    N2760    N        0.48475    0.10541    0.05444    1.000
    Si2761   Si       0.47062    0.02885    0.11312    1.000
    N2762    N        0.46671    0.05771    0.00944    1.000
    N2763    N        0.50364    0.00991    0.09487    1.000
    Si2764   Si       0.50671    0.04006    0.99460    1.000
    N2765    N        0.50070    0.13407    0.11634    1.000
    N2766    N        0.51290    0.13424    0.00783    1.000
    Si2767   Si       0.47321    0.14030    0.02690    1.000
    Si2768   Si       0.48066    0.17142    0.10326    1.000
    Si2769   Si       0.48327    0.20463    0.03376    1.000
    N2770    N        0.48487    0.21320    0.10650    1.000
    N2771    N        0.47550    0.17034    0.05903    1.000
    N2772    N        0.46108    0.23784    0.04854    1.000
    N2773    N        0.47594    0.07068    0.12211    1.000
    Si2774   Si       0.47443    0.10061    0.20913    1.000
    N2775    N        0.51218    0.10790    0.18964    1.000
    N2776    N        0.46813    0.12402    0.24523    1.000
    N2777    N        0.50053    0.21961    0.21808    1.000
    Si2778   Si       0.45925    0.15776    0.16798    1.000
    N2779    N        0.50154    0.17154    0.16550    1.000
    N2780    N        0.46956    0.18005    0.99710    1.000
    N2781    N        0.48854    0.07756    0.30115    1.000
    Si2782   Si       0.49213    0.11554    0.28289    1.000
    N2783    N        0.48965    0.03246    0.35608    1.000
    N2784    N        0.50202    0.03510    0.25178    1.000
    Si2785   Si       0.46984    0.06608    0.33977    1.000
    Si2786   Si       0.46119    0.02078    0.26113    1.000
    N2787    N        0.47610    0.09981    0.36525    1.000
    N2788    N        0.47759    0.16810    0.35710    1.000
    Si2789   Si       0.50374    0.23814    0.31817    1.000
    N2790    N        0.46424    0.22822    0.33106    1.000
    Si2791   Si       0.45958    0.20568    0.36877    1.000
    N2792    N        0.50239    0.06495    0.42536    1.000
    Si2793   Si       0.50337    0.03371    0.39687    1.000
    Si2794   Si       0.50534    0.09901    0.39801    1.000
    N2795    N        0.48857    0.25465    0.46435    1.000
    N2796    N        0.49976    0.13493    0.42045    1.000
    N2797    N        0.47586    0.14811    0.48576    1.000
    Si2798   Si       0.46450    0.14882    0.44272    1.000
    N2799    N        0.48393    0.23230    0.39517    1.000
    Si2800   Si       0.49319    0.22058    0.43588    1.000
    Si2801   Si       0.51765    0.16879    0.33872    1.000
    N2802    N        0.46017    0.19404    0.44050    1.000
    N2803    N        0.49366    0.11181    0.55054    1.000
    Si2804   Si       0.47765    0.11219    0.50978    1.000
    Si2805   Si       0.50925    0.02591    0.52398    1.000
    N2806    N        0.46802    0.01622    0.60664    1.000
    N2807    N        0.46385    0.03276    0.53019    1.000
    N2808    N        0.51037    0.08705    0.49872    1.000
    N2809    N        0.51327    0.17010    0.59482    1.000
    Si2810   Si       0.47773    0.14160    0.57984    1.000
    N2811    N        0.46927    0.17381    0.54788    1.000
    Si2812   Si       0.49888    0.19977    0.56470    1.000
    N2813    N        0.47722    0.23362    0.58439    1.000
    Si2814   Si       0.47130    0.18741    0.50750    1.000
    N2815    N        0.51033    0.20722    0.51821    1.000
    N2816    N        0.48025    0.12548    0.61952    1.000
    Si2817   Si       0.46640    0.09244    0.64533    1.000
    Si2818   Si       0.49838    0.02807    0.63580    1.000
    N2819    N        0.50071    0.06849    0.64564    1.000
    N2820    N        0.48632    0.11894    0.73432    1.000
    Si2821   Si       0.50758    0.15486    0.63578    1.000
    Si2822   Si       0.50992    0.21667    0.66279    1.000
    N2823    N        0.48303    0.18176    0.66072    1.000
    N2824    N        0.51641    0.22965    0.70441    1.000
    Si2825   Si       0.48472    0.07365    0.82759    1.000
    N2826    N        0.49340    0.07724    0.78549    1.000
    N2827    N        0.47690    0.10740    0.85568    1.000
    Si2828   Si       0.48611    0.04430    0.75849    1.000
    Si2829   Si       0.51227    0.11070    0.76535    1.000
    Si2830   Si       0.51166    0.16358    0.82344    1.000
    N2831    N        0.47186    0.17204    0.84121    1.000
    N2832    N        0.48074    0.23298    0.81576    1.000
    N2833    N        0.46412    0.07574    0.92554    1.000
    N2834    N        0.48153    0.01260    0.97042    1.000
    Si2835   Si       0.50121    0.09434    0.93841    1.000
    Si2836   Si       0.46211    0.03541    0.93928    1.000
    N2837    N        0.48948    0.13442    0.94372    1.000
    Si2838   Si       0.50309    0.16017    0.97553    1.000
    N2839    N        0.45919    0.23361    0.88374    1.000
    Si2840   Si       0.48411    0.35014    0.05079    1.000
    N2841    N        0.49029    0.36749    0.09028    1.000
    N2842    N        0.51238    0.31722    0.04201    1.000
    N2843    N        0.49191    0.38168    0.02047    1.000
    N2844    N        0.49583    0.49481    0.04435    1.000
    Si2845   Si       0.49121    0.45121    0.03523    1.000
    N2846    N        0.50161    0.43979    0.07695    1.000
    N2847    N        0.48929    0.49884    0.11081    1.000
    Si2848   Si       0.51457    0.48120    0.08254    1.000
    Si2849   Si       0.51926    0.40157    0.08701    1.000
    N2850    N        0.49951    0.35134    0.20655    1.000
    Si2851   Si       0.49615    0.30873    0.20649    1.000
    N2852    N        0.49123    0.29671    0.16647    1.000
    N2853    N        0.46617    0.30438    0.24041    1.000
    Si2854   Si       0.46640    0.37667    0.19731    1.000
    N2855    N        0.51318    0.48722    0.20189    1.000
    N2856    N        0.46876    0.39265    0.15682    1.000
    Si2857   Si       0.47190    0.49259    0.19380    1.000
    Si2858   Si       0.45909    0.37113    0.12109    1.000
    Si2859   Si       0.48770    0.30241    0.28129    1.000
    N2860    N        0.50543    0.37331    0.32261    1.000
    Si2861   Si       0.46604    0.36696    0.30931    1.000
    N2862    N        0.46045    0.32039    0.31167    1.000
    N2863    N        0.49855    0.26110    0.27988    1.000
    N2864    N        0.47826    0.47163    0.33336    1.000
    N2865    N        0.50570    0.49215    0.27424    1.000
    Si2866   Si       0.46202    0.33372    0.47987    1.000
    Si2867   Si       0.49528    0.27135    0.37918    1.000
    Si2868   Si       0.48178    0.32703    0.40563    1.000
    N2869    N        0.50317    0.36225    0.39579    1.000
    N2870    N        0.50530    0.32517    0.48599    1.000
    N2871    N        0.51342    0.29921    0.40981    1.000
    N2872    N        0.46318    0.30077    0.37465    1.000
    Si2873   Si       0.51856    0.28289    0.48190    1.000
    Si2874   Si       0.50815    0.40179    0.41357    1.000
    Si2875   Si       0.49121    0.45028    0.47427    1.000
    N2876    N        0.48506    0.42028    0.44188    1.000
    N2877    N        0.50541    0.42603    0.37580    1.000
    Si2878   Si       0.48290    0.46496    0.37573    1.000
    N2879    N        0.50579    0.49841    0.38949    1.000
    N2880    N        0.50513    0.48885    0.46381    1.000
    Si2881   Si       0.50332    0.33026    0.59699    1.000
    N2882    N        0.47030    0.34006    0.57192    1.000
    Si2883   Si       0.47376    0.37437    0.54155    1.000
    N2884    N        0.51569    0.37815    0.53974    1.000
    N2885    N        0.48519    0.47799    0.56044    1.000
    Si2886   Si       0.48854    0.48186    0.60644    1.000
    N2887    N        0.45954    0.44185    0.50424    1.000
    N2888    N        0.51583    0.46426    0.63377    1.000
    N2889    N        0.48503    0.42824    0.68424    1.000
    N2890    N        0.48781    0.32078    0.63509    1.000
    N2891    N        0.50589    0.29965    0.70012    1.000
    Si2892   Si       0.49456    0.26253    0.71993    1.000
    Si2893   Si       0.51545    0.29596    0.65725    1.000
    N2894    N        0.51410    0.48805    0.70562    1.000
    Si2895   Si       0.49400    0.46943    0.67408    1.000
    N2896    N        0.45432    0.35321    0.68538    1.000
    N2897    N        0.45784    0.49290    0.66955    1.000
    Si2898   Si       0.49276    0.35349    0.79274    1.000
    N2899    N        0.46977    0.29977    0.85894    1.000
    N2900    N        0.49233    0.26883    0.76121    1.000
    N2901    N        0.51042    0.31835    0.80927    1.000
    Si2902   Si       0.51516    0.30746    0.85141    1.000
    N2903    N        0.48493    0.34837    0.75080    1.000
    N2904    N        0.51602    0.38997    0.79780    1.000
    N2905    N        0.48672    0.45217    0.82872    1.000
    Si2906   Si       0.46958    0.45547    0.78675    1.000
    N2907    N        0.51034    0.46374    0.77106    1.000
    Si2908   Si       0.48207    0.26931    0.88671    1.000
    N2909    N        0.49695    0.35049    0.95695    1.000
    Si2910   Si       0.48129    0.33259    0.91805    1.000
    N2911    N        0.48006    0.29068    0.92517    1.000
    Si2912   Si       0.47057    0.27188    0.96341    1.000
    Si2913   Si       0.47152    0.37861    0.98242    1.000
    N2914    N        0.51461    0.33441    0.88897    1.000
    N2915    N        0.50599    0.26272    0.98713    1.000
    N2916    N        0.48419    0.39010    0.90380    1.000
    Si2917   Si       0.49326    0.42721    0.92856    1.000
    Si2918   Si       0.48223    0.49432    0.92080    1.000
    N2919    N        0.47882    0.45713    0.90181    1.000
    N2920    N        0.46631    0.48639    0.96298    1.000
    N2921    N        0.46969    0.41840    0.96484    1.000
    N2922    N        0.47499    0.56813    0.04857    1.000
    Si2923   Si       0.46662    0.52590    0.03635    1.000
    Si2924   Si       0.51391    0.58571    0.05981    1.000
    N2925    N        0.51315    0.62681    0.07705    1.000
    Si2926   Si       0.51058    0.53678    0.11637    1.000
    N2927    N        0.46949    0.74372    0.07383    1.000
    N2928    N        0.47006    0.67783    0.05261    1.000
    Si2929   Si       0.47969    0.65262    0.08546    1.000
    Si2930   Si       0.49074    0.71862    0.04281    1.000
    N2931    N        0.49295    0.71769    0.99942    1.000
    Si2932   Si       0.46101    0.71323    0.10526    1.000
    N2933    N        0.48811    0.68020    0.11758    1.000
    N2934    N        0.48328    0.56852    0.12555    1.000
    N2935    N        0.47591    0.60043    0.18482    1.000
    Si2936   Si       0.50461    0.62062    0.21020    1.000
    Si2937   Si       0.48836    0.56285    0.16949    1.000
    N2938    N        0.50932    0.65899    0.18911    1.000
    N2939    N        0.49056    0.72192    0.18985    1.000
    Si2940   Si       0.48638    0.68629    0.21320    1.000
    N2941    N        0.48726    0.60189    0.31780    1.000
    Si2942   Si       0.49656    0.58309    0.27702    1.000
    Si2943   Si       0.48874    0.58160    0.35809    1.000
    N2944    N        0.47417    0.55017    0.26100    1.000
    N2945    N        0.48954    0.61785    0.24951    1.000
    Si2946   Si       0.46628    0.50743    0.26262    1.000
    Si2947   Si       0.47764    0.70561    0.28056    1.000
    N2948    N        0.49106    0.72349    0.31590    1.000
    Si2949   Si       0.48493    0.70974    0.35737    1.000
    N2950    N        0.47575    0.66844    0.36203    1.000
    N2951    N        0.50602    0.69886    0.25046    1.000
    Si2952   Si       0.46760    0.63924    0.32963    1.000
    Si2953   Si       0.50641    0.58886    0.43424    1.000
    N2954    N        0.47537    0.58400    0.46561    1.000
    N2955    N        0.49471    0.60534    0.39452    1.000
    Si2956   Si       0.49956    0.51713    0.42936    1.000
    N2957    N        0.50933    0.66849    0.42213    1.000
    Si2958   Si       0.47485    0.68214    0.44715    1.000
    N2959    N        0.51276    0.67099    0.48329    1.000
    N2960    N        0.46851    0.72314    0.45074    1.000
    Si2961   Si       0.50437    0.64708    0.38669    1.000
    N2962    N        0.46708    0.66417    0.29419    1.000
    N2963    N        0.47607    0.55254    0.52689    1.000
    N2964    N        0.47502    0.62073    0.52417    1.000
    N2965    N        0.48824    0.52864    0.59711    1.000
    Si2966   Si       0.49095    0.58482    0.50585    1.000
    Si2967   Si       0.49351    0.51837    0.55096    1.000
    Si2968   Si       0.47572    0.61273    0.61633    1.000
    N2969    N        0.50080    0.68251    0.54354    1.000
    Si2970   Si       0.48073    0.66083    0.51130    1.000
    N2971    N        0.48011    0.65296    0.60529    1.000
    Si2972   Si       0.48594    0.73899    0.59987    1.000
    Si2973   Si       0.51084    0.67284    0.58405    1.000
    N2974    N        0.49023    0.75830    0.56141    1.000
    N2975    N        0.48076    0.60013    0.71856    1.000
    Si2976   Si       0.50357    0.53013    0.71320    1.000
    N2977    N        0.49001    0.55088    0.67534    1.000
    Si2978   Si       0.49766    0.59288    0.67472    1.000
    N2979    N        0.46665    0.53182    0.73279    1.000
    N2980    N        0.51230    0.59368    0.62928    1.000
    N2981    N        0.46166    0.61577    0.65640    1.000
    N2982    N        0.51584    0.73702    0.73085    1.000
    Si2983   Si       0.46528    0.64037    0.72702    1.000
    Si2984   Si       0.50338    0.75199    0.69044    1.000
    N2985    N        0.49515    0.66878    0.71701    1.000
    N2986    N        0.47762    0.58467    0.79967    1.000
    Si2987   Si       0.49552    0.55392    0.82434    1.000
    Si2988   Si       0.50275    0.61587    0.86075    1.000
    N2989    N        0.46927    0.53721    0.85319    1.000
    Si2990   Si       0.50069    0.62397    0.79057    1.000
    N2991    N        0.50075    0.64612    0.82938    1.000
    Si2992   Si       0.48310    0.68277    0.84197    1.000
    N2993    N        0.46288    0.71190    0.75938    1.000
    N2994    N        0.46242    0.64131    0.77110    1.000
    Si2995   Si       0.46040    0.75492    0.74844    1.000
    N2996    N        0.51426    0.71142    0.83513    1.000
    Si2997   Si       0.50322    0.70093    0.74755    1.000
    Si2998   Si       0.51284    0.58868    0.98799    1.000
    N2999    N        0.50607    0.54915    0.97467    1.000
    Si3000   Si       0.46829    0.53023    0.96480    1.000
    N3001    N        0.46973    0.59954    0.88429    1.000
    N3002    N        0.46450    0.53429    0.92104    1.000
    N3003    N        0.47413    0.60555    0.99377    1.000
    N3004    N        0.46138    0.66579    0.87789    1.000
    Si3005   Si       0.46372    0.74761    0.98752    1.000
    Si3006   Si       0.47706    0.68887    0.91643    1.000
    N3007    N        0.47597    0.64544    0.93434    1.000
    N3008    N        0.48734    0.72734    0.89363    1.000
    N3009    N        0.49077    0.83867    0.02937    1.000
    Si3010   Si       0.50224    0.82322    0.06947    1.000
    Si3011   Si       0.47370    0.77502    0.10724    1.000
    N3012    N        0.46723    0.77894    0.01664    1.000
    N3013    N        0.51643    0.78293    0.10886    1.000
    Si3014   Si       0.47685    0.87866    0.03062    1.000
    Si3015   Si       0.48289    0.81241    0.99341    1.000
    N3016    N        0.51759    0.99335    0.19947    1.000
    N3017    N        0.47209    0.99540    0.03360    1.000
    N3018    N        0.51195    0.90194    0.04335    1.000
    Si3019   Si       0.50932    0.00167    0.05284    1.000
    N3020    N        0.46526    0.94225    0.10866    1.000
    N3021    N        0.50885    0.82385    0.23461    1.000
    Si3022   Si       0.49838    0.80418    0.19461    1.000
    N3023    N        0.49204    0.83820    0.16468    1.000
    Si3024   Si       0.46203    0.86582    0.18501    1.000
    N3025    N        0.46430    0.00715    0.15068    1.000
    Si3026   Si       0.46677    0.90995    0.23864    1.000
    N3027    N        0.48885    0.89246    0.20507    1.000
    Si3028   Si       0.47787    0.96609    0.14326    1.000
    Si3029   Si       0.48345    0.96957    0.21161    1.000
    N3030    N        0.46097    0.95070    0.17968    1.000
    N3031    N        0.46180    0.78104    0.19967    1.000
    Si3032   Si       0.48061    0.80569    0.31866    1.000
    N3033    N        0.48184    0.84971    0.33030    1.000
    Si3034   Si       0.47028    0.84071    0.25170    1.000
    N3035    N        0.47461    0.87937    0.26900    1.000
    Si3036   Si       0.50030    0.87980    0.30520    1.000
    N3037    N        0.45759    0.80986    0.28095    1.000
    N3038    N        0.45791    0.79599    0.35321    1.000
    N3039    N        0.49816    0.91470    0.32850    1.000
    Si3040   Si       0.47795    0.99386    0.33990    1.000
    N3041    N        0.49278    0.94635    0.24797    1.000
    Si3042   Si       0.46128    0.92105    0.34797    1.000
    N3043    N        0.49726    0.82980    0.46971    1.000
    Si3044   Si       0.48295    0.79499    0.38961    1.000
    N3045    N        0.47999    0.83679    0.39887    1.000
    N3046    N        0.46509    0.78067    0.42700    1.000
    Si3047   Si       0.47809    0.87856    0.41535    1.000
    Si3048   Si       0.46094    0.82189    0.44468    1.000
    Si3049   Si       0.48404    0.76224    0.46168    1.000
    Si3050   Si       0.47075    0.94567    0.47194    1.000
    N3051    N        0.51189    0.95176    0.46012    1.000
    N3052    N        0.51231    0.94041    0.39367    1.000
    Si3053   Si       0.47675    0.96024    0.40559    1.000
    N3054    N        0.48635    0.00004    0.41632    1.000
    N3055    N        0.51492    0.88683    0.43756    1.000
    N3056    N        0.45614    0.96314    0.36340    1.000
    N3057    N        0.45659    0.89236    0.37994    1.000
    Si3058   Si       0.50055    0.82312    0.51319    1.000
    Si3059   Si       0.47303    0.84794    0.57978    1.000
    N3060    N        0.49947    0.83256    0.61069    1.000
    N3061    N        0.47174    0.81909    0.54668    1.000
    N3062    N        0.51129    0.86271    0.52376    1.000
    Si3063   Si       0.45791    0.77843    0.53971    1.000
    N3064    N        0.46147    0.77099    0.49729    1.000
    Si3065   Si       0.46658    0.97461    0.60252    1.000
    N3066    N        0.48130    0.89067    0.57285    1.000
    Si3067   Si       0.49593    0.91029    0.60892    1.000
    N3068    N        0.50678    0.98511    0.53939    1.000
    Si3069   Si       0.48817    0.90014    0.53027    1.000
    N3070    N        0.50367    0.95245    0.60386    1.000
    Si3071   Si       0.46274    0.98797    0.53467    1.000
    N3072    N        0.46164    0.91018    0.49502    1.000
    N3073    N        0.46578    0.76982    0.62365    1.000
    Si3074   Si       0.48429    0.80484    0.64186    1.000
    Si3075   Si       0.47130    0.86921    0.67618    1.000
    N3076    N        0.46436    0.76545    0.70576    1.000
    N3077    N        0.51554    0.78607    0.66642    1.000
    N3078    N        0.45976    0.82779    0.66849    1.000
    N3079    N        0.47337    0.89657    0.64243    1.000
    N3080    N        0.49072    0.89123    0.71111    1.000
    N3081    N        0.49766    0.96352    0.72720    1.000
    Si3082   Si       0.47256    0.92909    0.72222    1.000
    N3083    N        0.49218    0.00160    0.66943    1.000
    N3084    N        0.47905    0.83698    0.82207    1.000
    Si3085   Si       0.47246    0.79411    0.81494    1.000
    N3086    N        0.49735    0.77550    0.84563    1.000
    N3087    N        0.48534    0.77703    0.77641    1.000
    Si3088   Si       0.51050    0.97951    0.96866    1.000
    Si3089   Si       0.48773    0.92090    0.83438    1.000
    Si3090   Si       0.48633    0.96591    0.77024    1.000
    N3091    N        0.50657    0.95208    0.80693    1.000
    N3092    N        0.47745    0.99889    0.84155    1.000
    N3093    N        0.47198    0.00637    0.77806    1.000
    N3094    N        0.46034    0.92874    0.76457    1.000
    Si3095   Si       0.50237    0.80238    0.87945    1.000
    N3096    N        0.46565    0.80665    0.89871    1.000
    N3097    N        0.51733    0.81094    0.96739    1.000
    N3098    N        0.47604    0.76294    0.94903    1.000
    N3099    N        0.48866    0.94251    0.87255    1.000
    Si3100   Si       0.51527    0.93329    0.90528    1.000
    Si3101   Si       0.50354    0.90009    0.97029    1.000
    N3102    N        0.46808    0.88613    0.98958    1.000
    N3103    N        0.50382    0.89943    0.92699    1.000
    N3104    N        0.51007    0.94093    0.98525    1.000
    Si3105   Si       0.46545    0.97793    0.87742    1.000
    Si3106   Si       0.51908    0.98660    0.83101    1.000
    Si3107   Si       0.51907    0.77252    0.94475    1.000
    N3108    N        0.53814    0.08622    0.08386    1.000
    Si3109   Si       0.55953    0.05841    0.05317    1.000
    Si3110   Si       0.53001    0.11625    0.04611    1.000
    N3111    N        0.56447    0.09510    0.02697    1.000
    N3112    N        0.52344    0.04056    0.03561    1.000
    Si3113   Si       0.56361    0.07570    0.11799    1.000
    Si3114   Si       0.55617    0.19579    0.05123    1.000
    N3115    N        0.55443    0.21512    0.09013    1.000
    N3116    N        0.55453    0.15193    0.05798    1.000
    N3117    N        0.52382    0.20937    0.02333    1.000
    Si3118   Si       0.52174    0.23355    0.11088    1.000
    Si3119   Si       0.53592    0.02059    0.22592    1.000
    N3120    N        0.55341    0.05561    0.21052    1.000
    N3121    N        0.56022    0.11496    0.13997    1.000
    Si3122   Si       0.54539    0.09849    0.21927    1.000
    N3123    N        0.54864    0.04136    0.13957    1.000
    Si3124   Si       0.57403    0.04229    0.17350    1.000
    Si3125   Si       0.52112    0.13166    0.15451    1.000
    N3126    N        0.56126    0.19438    0.19365    1.000
    N3127    N        0.52889    0.23920    0.15421    1.000
    Si3128   Si       0.52203    0.20679    0.18194    1.000
    Si3129   Si       0.52147    0.24792    0.24399    1.000
    N3130    N        0.57863    0.12471    0.20597    1.000
    N3131    N        0.54991    0.04472    0.30966    1.000
    N3132    N        0.53226    0.09941    0.26164    1.000
    Si3133   Si       0.54438    0.01580    0.34582    1.000
    Si3134   Si       0.52096    0.05984    0.27968    1.000
    Si3135   Si       0.55453    0.13007    0.28280    1.000
    N3136    N        0.55865    0.23154    0.26013    1.000
    Si3137   Si       0.56231    0.19817    0.28844    1.000
    N3138    N        0.52666    0.20207    0.31280    1.000
    N3139    N        0.56447    0.16543    0.26041    1.000
    Si3140   Si       0.53404    0.16078    0.41396    1.000
    N3141    N        0.52072    0.13862    0.30807    1.000
    Si3142   Si       0.52100    0.06386    0.46459    1.000
    Si3143   Si       0.56994    0.03743    0.42037    1.000
    N3144    N        0.54357    0.10138    0.38171    1.000
    N3145    N        0.54601    0.02977    0.38663    1.000
    N3146    N        0.56119    0.06955    0.45044    1.000
    N3147    N        0.52077    0.02324    0.48317    1.000
    Si3148   Si       0.56267    0.18169    0.46344    1.000
    N3149    N        0.52584    0.19316    0.44243    1.000
    N3150    N        0.56467    0.14387    0.44146    1.000
    N3151    N        0.54385    0.17441    0.37304    1.000
    Si3152   Si       0.55645    0.04380    0.58669    1.000
    N3153    N        0.55787    0.08302    0.60719    1.000
    N3154    N        0.53452    0.04872    0.54943    1.000
    Si3155   Si       0.52963    0.09200    0.53852    1.000
    N3156    N        0.56819    0.11030    0.54134    1.000
    N3157    N        0.53369    0.01859    0.61303    1.000
    N3158    N        0.53809    0.22468    0.57334    1.000
    Si3159   Si       0.54257    0.23195    0.53090    1.000
    Si3160   Si       0.55605    0.18956    0.60361    1.000
    Si3161   Si       0.51433    0.25303    0.59781    1.000
    N3162    N        0.55920    0.06694    0.68121    1.000
    Si3163   Si       0.53935    0.08454    0.64709    1.000
    Si3164   Si       0.55314    0.06067    0.72633    1.000
    N3165    N        0.53792    0.12680    0.65281    1.000
    N3166    N        0.51937    0.03338    0.73045    1.000
    Si3167   Si       0.55364    0.21310    0.71233    1.000
    N3168    N        0.54377    0.18992    0.64763    1.000
    Si3169   Si       0.56193    0.15443    0.67293    1.000
    N3170    N        0.55466    0.16719    0.71405    1.000
    N3171    N        0.51323    0.25432    0.64057    1.000
    Si3172   Si       0.55196    0.03608    0.84112    1.000
    N3173    N        0.52569    0.07100    0.84445    1.000
    N3174    N        0.54491    0.01243    0.80470    1.000
    N3175    N        0.55073    0.09444    0.75262    1.000
    Si3176   Si       0.52022    0.10640    0.86847    1.000
    N3177    N        0.53551    0.14278    0.85581    1.000
    N3178    N        0.55765    0.21274    0.75809    1.000
    N3179    N        0.53778    0.19846    0.83062    1.000
    Si3180   Si       0.55439    0.16790    0.75857    1.000
    Si3181   Si       0.56180    0.17740    0.86454    1.000
    Si3182   Si       0.52126    0.23828    0.82949    1.000
    N3183    N        0.52035    0.15138    0.78210    1.000
    N3184    N        0.53575    0.09709    0.90799    1.000
    Si3185   Si       0.56112    0.08661    0.98488    1.000
    N3186    N        0.52036    0.07334    0.97033    1.000
    Si3187   Si       0.53090    0.22614    0.98377    1.000
    N3188    N        0.56976    0.24310    0.97246    1.000
    Si3189   Si       0.56067    0.18277    0.93274    1.000
    N3190    N        0.52435    0.19209    0.95654    1.000
    Si3191   Si       0.55717    0.25027    0.88855    1.000
    N3192    N        0.55527    0.20652    0.89680    1.000
    N3193    N        0.53993    0.00808    0.98300    1.000
    Si3194   Si       0.53990    0.30258    0.07213    1.000
    N3195    N        0.55842    0.27603    0.04221    1.000
    N3196    N        0.56680    0.33259    0.08936    1.000
    Si3197   Si       0.53088    0.29082    0.01036    1.000
    N3198    N        0.52587    0.27875    0.10512    1.000
    Si3199   Si       0.57282    0.37481    0.08715    1.000
    N3200    N        0.54826    0.38979    0.05668    1.000
    N3201    N        0.55482    0.48784    0.09538    1.000
    Si3202   Si       0.53240    0.39587    0.01695    1.000
    N3203    N        0.52713    0.43940    0.01392    1.000
    Si3204   Si       0.56156    0.46199    0.00434    1.000
    N3205    N        0.55103    0.39745    0.11668    1.000
    N3206    N        0.52697    0.28559    0.22356    1.000
    Si3207   Si       0.53398    0.37503    0.21757    1.000
    Si3208   Si       0.52744    0.28261    0.14800    1.000
    N3209    N        0.56383    0.34418    0.21829    1.000
    N3210    N        0.56399    0.30061    0.15645    1.000
    N3211    N        0.54760    0.40383    0.18702    1.000
    Si3212   Si       0.57279    0.39562    0.15352    1.000
    Si3213   Si       0.53277    0.49317    0.24053    1.000
    Si3214   Si       0.53949    0.34425    0.31317    1.000
    N3215    N        0.54730    0.32214    0.34965    1.000
    Si3216   Si       0.56332    0.28278    0.35432    1.000
    N3217    N        0.52439    0.32422    0.27860    1.000
    N3218    N        0.52347    0.26256    0.34755    1.000
    N3219    N        0.52196    0.39379    0.25325    1.000
    Si3220   Si       0.52463    0.40758    0.34146    1.000
    N3221    N        0.53374    0.43552    0.31015    1.000
    Si3222   Si       0.54634    0.42295    0.27116    1.000
    N3223    N        0.54934    0.49931    0.33323    1.000
    N3224    N        0.55762    0.45866    0.24882    1.000
    N3225    N        0.55616    0.38830    0.36578    1.000
    Si3226   Si       0.51785    0.47635    0.31192    1.000
    N3227    N        0.55497    0.27893    0.45897    1.000
    Si3228   Si       0.55625    0.29800    0.42197    1.000
    N3229    N        0.56288    0.37388    0.48745    1.000
    Si3230   Si       0.54105    0.34777    0.38223    1.000
    N3231    N        0.56434    0.33919    0.41741    1.000
    Si3232   Si       0.55601    0.41539    0.47305    1.000
    N3233    N        0.55003    0.40152    0.43030    1.000
    N3234    N        0.53178    0.44324    0.49181    1.000
    Si3235   Si       0.55004    0.31427    0.24664    1.000
    Si3236   Si       0.55149    0.29300    0.55228    1.000
    N3237    N        0.56080    0.32847    0.53205    1.000
    N3238    N        0.53581    0.35837    0.60034    1.000
    Si3239   Si       0.53102    0.35144    0.50882    1.000
    N3240    N        0.52766    0.27186    0.52118    1.000
    N3241    N        0.52237    0.29336    0.58542    1.000
    Si3242   Si       0.54344    0.38931    0.57197    1.000
    N3243    N        0.55393    0.42796    0.59296    1.000
    Si3244   Si       0.51590    0.33270    0.72801    1.000
    N3245    N        0.55296    0.31621    0.65205    1.000
    Si3246   Si       0.56211    0.35690    0.63544    1.000
    N3247    N        0.55007    0.35760    0.71466    1.000
    Si3248   Si       0.54791    0.43529    0.63622    1.000
    N3249    N        0.55302    0.39451    0.65535    1.000
    Si3250   Si       0.56107    0.39494    0.69923    1.000
    Si3251   Si       0.53731    0.46898    0.73703    1.000
    N3252    N        0.55887    0.43588    0.71687    1.000
    Si3253   Si       0.53802    0.48717    0.49527    1.000
    N3254    N        0.55961    0.31112    0.85080    1.000
    Si3255   Si       0.52556    0.28866    0.78140    1.000
    N3256    N        0.54528    0.30894    0.75093    1.000
    N3257    N        0.55176    0.26169    0.80492    1.000
    N3258    N        0.51968    0.26159    0.86687    1.000
    N3259    N        0.54690    0.38721    0.86110    1.000
    N3260    N        0.55391    0.45234    0.82562    1.000
    Si3261   Si       0.54543    0.40624    0.82204    1.000
    N3262    N        0.56553    0.49877    0.75403    1.000
    Si3263   Si       0.52124    0.47642    0.81199    1.000
    N3264    N        0.55463    0.31083    0.97920    1.000
    N3265    N        0.56158    0.28450    0.91481    1.000
    Si3266   Si       0.54051    0.34714    0.96423    1.000
    N3267    N        0.55822    0.35677    0.92467    1.000
    Si3268   Si       0.56084    0.32448    0.89373    1.000
    Si3269   Si       0.52765    0.37984    0.89757    1.000
    N3270    N        0.56003    0.37401    0.99211    1.000
    Si3271   Si       0.57818    0.28188    0.95426    1.000
    N3272    N        0.55132    0.50257    0.99839    1.000
    Si3273   Si       0.56317    0.50750    0.90558    1.000
    N3274    N        0.52349    0.49965    0.92812    1.000
    N3275    N        0.53478    0.41999    0.92153    1.000
    Si3276   Si       0.57427    0.43701    0.92758    1.000
    N3277    N        0.53939    0.58677    0.02405    1.000
    N3278    N        0.53381    0.55727    0.08726    1.000
    N3279    N        0.54650    0.64011    0.13847    1.000
    Si3280   Si       0.55287    0.63574    0.09567    1.000
    N3281    N        0.55989    0.69315    0.00530    1.000
    N3282    N        0.52947    0.72704    0.05661    1.000
    Si3283   Si       0.56546    0.69981    0.04824    1.000
    N3284    N        0.56561    0.67894    0.08711    1.000
    N3285    N        0.56965    0.75275    0.11058    1.000
    N3286    N        0.55299    0.52879    0.22380    1.000
    N3287    N        0.54216    0.59937    0.20241    1.000
    Si3288   Si       0.55951    0.57117    0.23223    1.000
    Si3289   Si       0.56570    0.62030    0.17369    1.000
    N3290    N        0.52447    0.53823    0.15908    1.000
    Si3291   Si       0.54832    0.51104    0.18426    1.000
    Si3292   Si       0.57133    0.70922    0.12008    1.000
    Si3293   Si       0.51716    0.67099    0.14897    1.000
    Si3294   Si       0.53046    0.73574    0.18369    1.000
    N3295    N        0.56021    0.73170    0.21615    1.000
    N3296    N        0.54184    0.70781    0.15174    1.000
    N3297    N        0.53895    0.57364    0.27221    1.000
    N3298    N        0.52854    0.56354    0.35782    1.000
    Si3299   Si       0.55443    0.60103    0.36041    1.000
    Si3300   Si       0.53742    0.52053    0.36905    1.000
    N3301    N        0.55693    0.72729    0.29153    1.000
    Si3302   Si       0.53356    0.74014    0.32586    1.000
    Si3303   Si       0.54548    0.71170    0.25280    1.000
    N3304    N        0.52700    0.71127    0.36172    1.000
    Si3305   Si       0.56211    0.68468    0.36633    1.000
    N3306    N        0.57442    0.67825    0.25855    1.000
    N3307    N        0.57045    0.75762    0.34781    1.000
    Si3308   Si       0.56709    0.55670    0.41751    1.000
    Si3309   Si       0.56556    0.59338    0.47923    1.000
    N3310    N        0.57089    0.51833    0.39823    1.000
    N3311    N        0.52480    0.55057    0.42902    1.000
    N3312    N        0.53830    0.61299    0.45095    1.000
    N3313    N        0.54340    0.64452    0.36707    1.000
    Si3314   Si       0.53824    0.65493    0.45177    1.000
    Si3315   Si       0.54933    0.55295    0.53638    1.000
    N3316    N        0.54610    0.56354    0.57767    1.000
    N3317    N        0.53320    0.58157    0.50727    1.000
    N3318    N        0.53103    0.51547    0.52867    1.000
    Si3319   Si       0.52318    0.55243    0.61372    1.000
    N3320    N        0.54674    0.64689    0.59227    1.000
    Si3321   Si       0.53310    0.69116    0.51635    1.000
    N3322    N        0.54264    0.73260    0.51801    1.000
    N3323    N        0.57063    0.67394    0.53268    1.000
    N3324    N        0.51966    0.71137    0.60180    1.000
    N3325    N        0.55434    0.53365    0.63569    1.000
    N3326    N        0.53654    0.60703    0.68845    1.000
    Si3327   Si       0.53364    0.59379    0.72930    1.000
    N3328    N        0.52968    0.55211    0.73873    1.000
    Si3329   Si       0.54247    0.62708    0.63230    1.000
    N3330    N        0.55994    0.67302    0.71712    1.000
    N3331    N        0.55108    0.66484    0.65535    1.000
    Si3332   Si       0.52721    0.67864    0.69128    1.000
    Si3333   Si       0.54456    0.70485    0.63562    1.000
    N3334    N        0.51997    0.71808    0.66875    1.000
    Si3335   Si       0.55231    0.54667    0.83707    1.000
    N3336    N        0.53210    0.62033    0.76291    1.000
    N3337    N        0.52533    0.58108    0.84457    1.000
    Si3338   Si       0.57103    0.54604    0.75659    1.000
    N3339    N        0.52430    0.51920    0.82014    1.000
    N3340    N        0.53479    0.68820    0.77398    1.000
    Si3341   Si       0.54708    0.71353    0.80600    1.000
    Si3342   Si       0.55516    0.65504    0.75685    1.000
    N3343    N        0.55251    0.75414    0.78557    1.000
    Si3344   Si       0.51902    0.74226    0.86709    1.000
    N3345    N        0.57007    0.53703    0.87548    1.000
    Si3346   Si       0.53935    0.52362    0.96287    1.000
    N3347    N        0.53164    0.61293    0.95803    1.000
    Si3348   Si       0.57444    0.61025    0.94829    1.000
    Si3349   Si       0.57153    0.63046    0.87693    1.000
    N3350    N        0.51771    0.68631    0.94022    1.000
    N3351    N        0.53066    0.63572    0.88893    1.000
    Si3352   Si       0.52876    0.70630    0.97732    1.000
    N3353    N        0.56324    0.73511    0.87064    1.000
    N3354    N        0.54662    0.74178    0.95782    1.000
    Si3355   Si       0.51799    0.64359    0.93084    1.000
    N3356    N        0.53651    0.79814    0.05318    1.000
    N3357    N        0.56763    0.86391    0.04241    1.000
    Si3358   Si       0.57027    0.82185    0.04023    1.000
    Si3359   Si       0.54101    0.76255    0.07832    1.000
    N3360    N        0.52089    0.85394    0.09501    1.000
    Si3361   Si       0.57586    0.88260    0.00409    1.000
    Si3362   Si       0.54060    0.88374    0.07025    1.000
    N3363    N        0.55833    0.91869    0.09141    1.000
    N3364    N        0.53605    0.96918    0.04710    1.000
    Si3365   Si       0.53208    0.93406    0.02186    1.000
    Si3366   Si       0.57256    0.95570    0.07173    1.000
    N3367    N        0.57278    0.98896    0.10005    1.000
    N3368    N        0.57239    0.92647    0.00932    1.000
    Si3369   Si       0.52643    0.85031    0.13906    1.000
    Si3370   Si       0.54792    0.78333    0.13868    1.000
    N3371    N        0.56230    0.82398    0.14360    1.000
    N3372    N        0.55824    0.87349    0.21676    1.000
    N3373    N        0.52739    0.77761    0.17780    1.000
    N3374    N        0.54264    0.93748    0.21069    1.000
    Si3375   Si       0.53630    0.00105    0.12105    1.000
    Si3376   Si       0.55131    0.96891    0.18280    1.000
    Si3377   Si       0.54498    0.92791    0.13257    1.000
    N3378    N        0.53396    0.89155    0.15328    1.000
    N3379    N        0.52166    0.96407    0.14413    1.000
    Si3380   Si       0.53085    0.90019    0.19616    1.000
    N3381    N        0.53569    0.86221    0.28965    1.000
    Si3382   Si       0.54729    0.79381    0.35124    1.000
    Si3383   Si       0.57393    0.84666    0.30304    1.000
    N3384    N        0.57561    0.82404    0.26432    1.000
    Si3385   Si       0.54280    0.84666    0.24718    1.000
    N3386    N        0.51798    0.78331    0.32179    1.000
    N3387    N        0.55683    0.93491    0.28635    1.000
    N3388    N        0.55335    0.99443    0.25713    1.000
    N3389    N        0.56659    0.92590    0.35484    1.000
    Si3390   Si       0.52676    0.93964    0.35248    1.000
    Si3391   Si       0.53861    0.95239    0.25215    1.000
    N3392    N        0.51980    0.98067    0.33578    1.000
    N3393    N        0.52424    0.78971    0.38816    1.000
    N3394    N        0.56070    0.82373    0.44130    1.000
    Si3395   Si       0.54605    0.78518    0.42530    1.000
    Si3396   Si       0.53258    0.85384    0.45805    1.000
    N3397    N        0.52759    0.76142    0.45792    1.000
    Si3398   Si       0.55176    0.76503    0.49218    1.000
    N3399    N        0.56201    0.87650    0.48222    1.000
    Si3400   Si       0.53247    0.92483    0.43022    1.000
    Si3401   Si       0.53981    0.98515    0.46909    1.000
    N3402    N        0.56699    0.99566    0.43733    1.000
    N3403    N        0.55517    0.77010    0.58137    1.000
    N3404    N        0.53319    0.79415    0.51794    1.000
    N3405    N        0.56899    0.84032    0.60914    1.000
    Si3406   Si       0.52970    0.76332    0.54834    1.000
    Si3407   Si       0.54996    0.88446    0.52358    1.000
    N3408    N        0.56780    0.96713    0.57147    1.000
    Si3409   Si       0.54086    0.97452    0.60663    1.000
    Si3410   Si       0.54201    0.96241    0.53723    1.000
    N3411    N        0.52785    0.92261    0.52837    1.000
    N3412    N        0.56451    0.97449    0.50171    1.000
    N3413    N        0.53373    0.89375    0.62155    1.000
    Si3414   Si       0.53349    0.85172    0.63164    1.000
    Si3415   Si       0.53614    0.81371    0.69193    1.000
    N3416    N        0.52962    0.80820    0.73537    1.000
    N3417    N        0.56296    0.86976    0.73676    1.000
    N3418    N        0.52267    0.85165    0.67489    1.000
    Si3419   Si       0.53273    0.87995    0.70742    1.000
    N3420    N        0.55027    0.91410    0.68836    1.000
    Si3421   Si       0.56056    0.91630    0.64494    1.000
    N3422    N        0.56097    0.95843    0.63978    1.000
    Si3423   Si       0.51701    0.99532    0.70623    1.000
    Si3424   Si       0.56254    0.94076    0.72086    1.000
    N3425    N        0.55655    0.97895    0.70260    1.000
    N3426    N        0.55111    0.83964    0.80104    1.000
    Si3427   Si       0.55832    0.83241    0.75821    1.000
    Si3428   Si       0.52386    0.77147    0.75837    1.000
    N3429    N        0.52401    0.83784    0.86986    1.000
    Si3430   Si       0.54532    0.92651    0.80065    1.000
    N3431    N        0.55446    0.94947    0.76320    1.000
    Si3432   Si       0.57062    0.98488    0.78376    1.000
    N3433    N        0.57249    0.95795    0.82162    1.000
    N3434    N        0.53761    0.00403    0.86623    1.000
    N3435    N        0.52419    0.89550    0.82665    1.000
    N3436    N        0.55681    0.93818    0.89091    1.000
    Si3437   Si       0.55182    0.83521    0.96630    1.000
    N3438    N        0.56865    0.84662    0.92878    1.000
    Si3439   Si       0.56452    0.84114    0.88656    1.000
    N3440    N        0.53968    0.87518    0.98097    1.000
    Si3441   Si       0.57110    0.77401    0.89182    1.000
    N3442    N        0.53077    0.77948    0.90243    1.000
    Si3443   Si       0.55195    0.98303    0.90036    1.000
    N3444    N        0.51846    0.97236    0.92521    1.000
    Si3445   Si       0.51746    0.85256    0.82872    1.000
    N3446    N        0.57565    0.81808    0.99691    1.000
    N3447    N        0.59411    0.05675    0.09059    1.000
    N3448    N        0.61082    0.11846    0.08354    1.000
    N3449    N        0.58428    0.02364    0.04081    1.000
    Si3450   Si       0.59144    0.12820    0.04609    1.000
    Si3451   Si       0.62962    0.07911    0.08640    1.000
    Si3452   Si       0.60207    0.01489    0.07979    1.000
    Si3453   Si       0.57798    0.01433    0.99776    1.000
    N3454    N        0.61865    0.15074    0.02200    1.000
    N3455    N        0.59472    0.21344    0.03247    1.000
    Si3456   Si       0.59701    0.21755    0.10593    1.000
    N3457    N        0.61750    0.18505    0.08859    1.000
    Si3458   Si       0.62879    0.18737    0.04721    1.000
    Si3459   Si       0.59529    0.25444    0.04558    1.000
    N3460    N        0.61267    0.25269    0.08445    1.000
    Si3461   Si       0.63159    0.14920    0.10683    1.000
    N3462    N        0.60204    0.07226    0.16237    1.000
    Si3463   Si       0.59450    0.11617    0.16475    1.000
    N3464    N        0.62604    0.14305    0.15106    1.000
    Si3465   Si       0.59893    0.21485    0.18735    1.000
    N3466    N        0.61182    0.22109    0.14545    1.000
    N3467    N        0.61091    0.24845    0.21013    1.000
    Si3468   Si       0.58115    0.16492    0.22068    1.000
    N3469    N        0.61962    0.18148    0.20783    1.000
    N3470    N        0.60801    0.03864    0.28685    1.000
    N3471    N        0.60163    0.06858    0.35380    1.000
    Si3472   Si       0.58675    0.06770    0.31229    1.000
    N3473    N        0.58784    0.11181    0.30302    1.000
    Si3474   Si       0.57515    0.01223    0.28973    1.000
    Si3475   Si       0.61249    0.14129    0.32086    1.000
    N3476    N        0.62850    0.24090    0.27731    1.000
    N3477    N        0.58997    0.18146    0.31854    1.000
    Si3478   Si       0.58321    0.18007    0.36183    1.000
    Si3479   Si       0.59689    0.25397    0.25083    1.000
    N3480    N        0.60348    0.14103    0.36567    1.000
    Si3481   Si       0.63206    0.04515    0.37326    1.000
    Si3482   Si       0.58466    0.10184    0.37601    1.000
    N3483    N        0.61210    0.11113    0.48132    1.000
    N3484    N        0.61078    0.02838    0.40831    1.000
    N3485    N        0.60965    0.10174    0.41378    1.000
    Si3486   Si       0.58514    0.10750    0.44948    1.000
    Si3487   Si       0.61888    0.20579    0.42369    1.000
    Si3488   Si       0.63136    0.13656    0.39897    1.000
    Si3489   Si       0.58751    0.25252    0.47080    1.000
    Si3490   Si       0.61966    0.25566    0.39155    1.000
    N3491    N        0.60428    0.21439    0.38187    1.000
    N3492    N        0.58721    0.21520    0.44947    1.000
    N3493    N        0.63449    0.16688    0.43062    1.000
    N3494    N        0.59655    0.02712    0.58112    1.000
    N3495    N        0.62439    0.08965    0.58218    1.000
    Si3496   Si       0.58551    0.11100    0.58217    1.000
    Si3497   Si       0.63454    0.04853    0.58698    1.000
    Si3498   Si       0.59554    0.13140    0.51469    1.000
    Si3499   Si       0.61819    0.16924    0.57663    1.000
    Si3500   Si       0.60890    0.24032    0.58253    1.000
    Si3501   Si       0.60972    0.20153    0.51336    1.000
    N3502    N        0.61813    0.20687    0.55519    1.000
    N3503    N        0.62678    0.14385    0.54241    1.000
    N3504    N        0.58370    0.17036    0.50021    1.000
    N3505    N        0.58981    0.21839    0.61539    1.000
    N3506    N        0.58010    0.15367    0.59051    1.000
    N3507    N        0.57890    0.23385    0.50830    1.000
    N3508    N        0.61408    0.11415    0.72467    1.000
    N3509    N        0.59389    0.04694    0.72920    1.000
    Si3510   Si       0.59967    0.05239    0.68529    1.000
    N3511    N        0.60204    0.01460    0.66340    1.000
    Si3512   Si       0.62872    0.11708    0.68576    1.000
    N3513    N        0.63193    0.07736    0.67089    1.000
    N3514    N        0.60298    0.14644    0.66353    1.000
    Si3515   Si       0.60345    0.23332    0.65461    1.000
    N3516    N        0.58485    0.23662    0.69423    1.000
    N3517    N        0.59298    0.04365    0.85146    1.000
    N3518    N        0.60774    0.07667    0.78830    1.000
    Si3519   Si       0.62452    0.04050    0.76569    1.000
    Si3520   Si       0.62326    0.06285    0.82639    1.000
    Si3521   Si       0.59347    0.10887    0.76149    1.000
    N3522    N        0.60122    0.17187    0.84575    1.000
    Si3523   Si       0.61836    0.17143    0.80515    1.000
    N3524    N        0.61923    0.20973    0.78499    1.000
    N3525    N        0.58981    0.14987    0.77641    1.000
    Si3526   Si       0.58418    0.23791    0.77978    1.000
    N3527    N        0.59261    0.25031    0.86206    1.000
    N3528    N        0.60682    0.07264    0.91279    1.000
    Si3529   Si       0.62140    0.06789    0.95683    1.000
    Si3530   Si       0.60681    0.03256    0.89218    1.000
    N3531    N        0.58758    0.05276    0.97810    1.000
    N3532    N        0.58529    0.11421    0.96130    1.000
    Si3533   Si       0.62052    0.16314    0.88538    1.000
    Si3534   Si       0.60963    0.14858    0.97812    1.000
    N3535    N        0.58384    0.15012    0.90610    1.000
    Si3536   Si       0.63391    0.23590    0.87587    1.000
    N3537    N        0.58860    0.18406    0.96699    1.000
    N3538    N        0.63072    0.20207    0.90542    1.000
    Si3539   Si       0.60122    0.21921    0.98850    1.000
    Si3540   Si       0.57734    0.10682    0.91917    1.000
    N3541    N        0.62119    0.27014    0.01443    1.000
    N3542    N        0.62125    0.34381    0.03077    1.000
    Si3543   Si       0.60362    0.37232    0.99806    1.000
    N3544    N        0.63109    0.30688    0.11822    1.000
    Si3545   Si       0.63484    0.40243    0.12600    1.000
    N3546    N        0.61367    0.38449    0.09116    1.000
    N3547    N        0.61626    0.47551    0.10003    1.000
    N3548    N        0.59593    0.46414    0.03252    1.000
    Si3549   Si       0.59044    0.48722    0.06906    1.000
    N3550    N        0.62282    0.40403    0.01800    1.000
    Si3551   Si       0.63253    0.44679    0.01788    1.000
    Si3552   Si       0.59032    0.31898    0.12361    1.000
    N3553    N        0.62409    0.31472    0.18578    1.000
    N3554    N        0.59026    0.35544    0.15165    1.000
    Si3555   Si       0.58359    0.32838    0.18402    1.000
    Si3556   Si       0.61191    0.45854    0.18179    1.000
    N3557    N        0.60787    0.42306    0.15556    1.000
    Si3558   Si       0.58545    0.49315    0.12705    1.000
    N3559    N        0.57711    0.48519    0.16822    1.000
    N3560    N        0.62430    0.46009    0.22305    1.000
    Si3561   Si       0.59835    0.30847    0.29716    1.000
    N3562    N        0.59172    0.27353    0.32383    1.000
    N3563    N        0.58557    0.29413    0.25984    1.000
    N3564    N        0.58172    0.34773    0.30007    1.000
    Si3565   Si       0.63466    0.26301    0.31692    1.000
    Si3566   Si       0.60921    0.38055    0.29218    1.000
    N3567    N        0.60788    0.47094    0.29620    1.000
    N3568    N        0.58876    0.40991    0.26756    1.000
    Si3569   Si       0.59974    0.45090    0.25755    1.000
    N3570    N        0.62201    0.49976    0.35717    1.000
    Si3571   Si       0.59406    0.50080    0.32379    1.000
    N3572    N        0.62721    0.40589    0.32508    1.000
    N3573    N        0.61395    0.34239    0.45721    1.000
    N3574    N        0.62023    0.27901    0.47914    1.000
    Si3575   Si       0.57976    0.36765    0.44688    1.000
    N3576    N        0.58058    0.27583    0.39300    1.000
    Si3577   Si       0.63315    0.31896    0.48864    1.000
    N3578    N        0.59450    0.43500    0.46633    1.000
    Si3579   Si       0.62210    0.43838    0.43084    1.000
    N3580    N        0.62662    0.48750    0.43001    1.000
    N3581    N        0.58192    0.49637    0.48752    1.000
    Si3582   Si       0.60252    0.48899    0.39469    1.000
    N3583    N        0.61170    0.39108    0.42023    1.000
    N3584    N        0.59421    0.44613    0.39544    1.000
    Si3585   Si       0.57813    0.40762    0.39581    1.000
    Si3586   Si       0.58834    0.36168    0.52332    1.000
    N3587    N        0.58782    0.27641    0.56994    1.000
    N3588    N        0.62809    0.34861    0.51930    1.000
    N3589    N        0.60819    0.45396    0.54006    1.000
    Si3590   Si       0.59294    0.42975    0.57326    1.000
    N3591    N        0.62504    0.43477    0.60108    1.000
    N3592    N        0.58140    0.39031    0.55378    1.000
    Si3593   Si       0.60533    0.45983    0.49719    1.000
    Si3594   Si       0.61016    0.26501    0.71610    1.000
    N3595    N        0.60443    0.34598    0.63884    1.000
    N3596    N        0.60172    0.30623    0.70204    1.000
    Si3597   Si       0.59465    0.30873    0.66019    1.000
    N3598    N        0.61640    0.27365    0.64651    1.000
    Si3599   Si       0.63208    0.37467    0.73094    1.000
    Si3600   Si       0.57883    0.32726    0.73307    1.000
    N3601    N        0.58543    0.45305    0.65866    1.000
    N3602    N        0.60492    0.39663    0.70582    1.000
    N3603    N        0.62441    0.50456    0.62638    1.000
    Si3604   Si       0.62074    0.46189    0.63492    1.000
    N3605    N        0.62234    0.47382    0.71802    1.000
    Si3606   Si       0.59895    0.44006    0.70108    1.000
    N3607    N        0.61886    0.30336    0.81969    1.000
    N3608    N        0.60314    0.26954    0.75827    1.000
    N3609    N        0.60777    0.34297    0.75925    1.000
    Si3610   Si       0.61234    0.37332    0.79188    1.000
    Si3611   Si       0.62331    0.30476    0.77613    1.000
    Si3612   Si       0.63054    0.33127    0.85128    1.000
    N3613    N        0.62913    0.36776    0.83047    1.000
    Si3614   Si       0.58125    0.28027    0.83077    1.000
    N3615    N        0.62303    0.43572    0.84646    1.000
    Si3616   Si       0.59533    0.44376    0.81266    1.000
    N3617    N        0.61558    0.47671    0.79291    1.000
    Si3618   Si       0.60675    0.49033    0.75320    1.000
    N3619    N        0.58264    0.40402    0.79672    1.000
    Si3620   Si       0.60096    0.36330    0.92141    1.000
    N3621    N        0.62162    0.28516    0.94908    1.000
    N3622    N        0.61024    0.33222    0.89248    1.000
    N3623    N        0.61871    0.35741    0.96130    1.000
    N3624    N        0.60618    0.40599    0.91777    1.000
    N3625    N        0.57915    0.44595    0.96836    1.000
    N3626    N        0.58382    0.47010    0.89983    1.000
    Si3627   Si       0.62056    0.46049    0.88019    1.000
    Si3628   Si       0.63748    0.30605    0.91712    1.000
    N3629    N        0.62082    0.58041    0.03243    1.000
    N3630    N        0.58926    0.52971    0.05533    1.000
    Si3631   Si       0.62318    0.53805    0.02947    1.000
    Si3632   Si       0.62130    0.61493    0.09418    1.000
    N3633    N        0.58082    0.60360    0.08730    1.000
    Si3634   Si       0.58249    0.59438    0.01936    1.000
    N3635    N        0.58611    0.63607    0.02613    1.000
    N3636    N        0.59605    0.73117    0.05235    1.000
    Si3637   Si       0.62642    0.73070    0.02067    1.000
    N3638    N        0.62977    0.69007    0.00616    1.000
    Si3639   Si       0.57738    0.55848    0.08485    1.000
    N3640    N        0.59209    0.53651    0.12538    1.000
    N3641    N        0.59882    0.59100    0.16511    1.000
    Si3642   Si       0.62285    0.56319    0.14246    1.000
    Si3643   Si       0.62709    0.62985    0.17494    1.000
    Si3644   Si       0.60527    0.67139    0.22833    1.000
    N3645    N        0.59309    0.64697    0.19551    1.000
    Si3646   Si       0.62788    0.74653    0.14409    1.000
    N3647    N        0.61159    0.70507    0.13724    1.000
    N3648    N        0.62831    0.63923    0.13191    1.000
    N3649    N        0.62176    0.70796    0.21165    1.000
    Si3650   Si       0.60064    0.74647    0.21107    1.000
    N3651    N        0.60041    0.54167    0.30768    1.000
    N3652    N        0.59675    0.58657    0.24880    1.000
    Si3653   Si       0.57791    0.57419    0.29031    1.000
    N3654    N        0.57373    0.60498    0.31993    1.000
    Si3655   Si       0.59079    0.69886    0.29365    1.000
    N3656    N        0.59083    0.68469    0.33475    1.000
    Si3657   Si       0.63029    0.67487    0.35188    1.000
    N3658    N        0.63267    0.71082    0.28581    1.000
    N3659    N        0.63316    0.64920    0.25255    1.000
    N3660    N        0.58542    0.56222    0.45471    1.000
    Si3661   Si       0.60087    0.53422    0.48498    1.000
    N3662    N        0.58347    0.58637    0.38847    1.000
    Si3663   Si       0.62230    0.60715    0.38373    1.000
    Si3664   Si       0.61168    0.75695    0.45210    1.000
    N3665    N        0.57907    0.66909    0.45112    1.000
    Si3666   Si       0.60803    0.65433    0.48138    1.000
    Si3667   Si       0.61091    0.68276    0.42160    1.000
    N3668    N        0.58526    0.70789    0.39524    1.000
    N3669    N        0.61678    0.65210    0.38561    1.000
    Si3670   Si       0.59442    0.74851    0.38231    1.000
    N3671    N        0.63118    0.71897    0.44133    1.000
    N3672    N        0.59729    0.61663    0.49682    1.000
    N3673    N        0.59219    0.55571    0.52315    1.000
    Si3674   Si       0.61441    0.59231    0.52893    1.000
    N3675    N        0.61527    0.56188    0.60842    1.000
    N3676    N        0.59419    0.60981    0.56449    1.000
    Si3677   Si       0.58193    0.58286    0.59542    1.000
    Si3678   Si       0.58780    0.66811    0.68523    1.000
    N3679    N        0.60696    0.73790    0.55449    1.000
    N3680    N        0.61941    0.67225    0.57148    1.000
    Si3681   Si       0.58823    0.74615    0.59411    1.000
    Si3682   Si       0.60864    0.69840    0.53931    1.000
    N3683    N        0.62677    0.68957    0.50156    1.000
    Si3684   Si       0.58034    0.64990    0.56613    1.000
    Si3685   Si       0.59698    0.53819    0.64061    1.000
    N3686    N        0.60354    0.55916    0.67811    1.000
    Si3687   Si       0.62997    0.55449    0.71130    1.000
    Si3688   Si       0.58159    0.59736    0.68238    1.000
    N3689    N        0.58009    0.58628    0.73384    1.000
    N3690    N        0.57665    0.60282    0.63612    1.000
    N3691    N        0.60818    0.63110    0.68652    1.000
    N3692    N        0.61729    0.70110    0.68719    1.000
    N3693    N        0.58625    0.71724    0.62556    1.000
    Si3694   Si       0.62530    0.70878    0.64589    1.000
    Si3695   Si       0.60579    0.58727    0.82052    1.000
    N3696    N        0.62606    0.57296    0.85685    1.000
    N3697    N        0.61647    0.53517    0.75033    1.000
    N3698    N        0.58561    0.62307    0.83446    1.000
    Si3699   Si       0.61183    0.60871    0.75175    1.000
    N3700    N        0.63443    0.59404    0.79060    1.000
    N3701    N        0.57511    0.55841    0.80045    1.000
    N3702    N        0.58322    0.69425    0.82218    1.000
    N3703    N        0.62133    0.73766    0.75685    1.000
    Si3704   Si       0.60068    0.65681    0.81004    1.000
    N3705    N        0.59535    0.64498    0.76862    1.000
    Si3706   Si       0.59053    0.70282    0.86320    1.000
    Si3707   Si       0.59998    0.56571    0.89053    1.000
    Si3708   Si       0.60924    0.55064    0.95908    1.000
    N3709    N        0.58977    0.58281    0.97639    1.000
    N3710    N        0.63019    0.56033    0.92288    1.000
    N3711    N        0.62966    0.52635    0.98878    1.000
    N3712    N        0.58137    0.60088    0.90588    1.000
    N3713    N        0.57631    0.52850    0.94181    1.000
    Si3714   Si       0.61358    0.67075    0.92648    1.000
    Si3715   Si       0.59013    0.74541    0.95632    1.000
    N3716    N        0.58711    0.65138    0.95597    1.000
    N3717    N        0.61361    0.71308    0.93822    1.000
    N3718    N        0.59183    0.66707    0.88868    1.000
    Si3719   Si       0.59303    0.66747    0.99643    1.000
    N3720    N        0.60385    0.79846    0.05011    1.000
    Si3721   Si       0.61453    0.79615    0.00758    1.000
    Si3722   Si       0.61836    0.76387    0.07136    1.000
    Si3723   Si       0.62307    0.99701    0.19637    1.000
    N3724    N        0.61212    0.95598    0.05357    1.000
    Si3725   Si       0.61031    0.94906    0.00823    1.000
    N3726    N        0.60045    0.76735    0.17132    1.000
    Si3727   Si       0.60022    0.81220    0.16335    1.000
    N3728    N        0.60939    0.83060    0.20316    1.000
    Si3729   Si       0.60112    0.87751    0.20958    1.000
    N3730    N        0.63296    0.82545    0.13749    1.000
    N3731    N        0.61559    0.77256    0.24115    1.000
    N3732    N        0.58147    0.00139    0.18766    1.000
    N3733    N        0.62356    0.89437    0.24127    1.000
    N3734    N        0.62152    0.89103    0.17292    1.000
    Si3735   Si       0.61934    0.93318    0.16258    1.000
    N3736    N        0.57723    0.94241    0.15523    1.000
    N3737    N        0.62834    0.95468    0.19980    1.000
    N3738    N        0.64046    0.76703    0.10920    1.000
    Si3739   Si       0.61121    0.81419    0.24308    1.000
    Si3740   Si       0.61491    0.80711    0.35261    1.000
    Si3741   Si       0.63534    0.87549    0.33676    1.000
    N3742    N        0.59767    0.88157    0.31161    1.000
    N3743    N        0.57629    0.82122    0.33738    1.000
    N3744    N        0.57773    0.92139    0.43077    1.000
    Si3745   Si       0.61531    0.97805    0.34900    1.000
    N3746    N        0.62363    0.94525    0.31951    1.000
    Si3747   Si       0.58524    0.92374    0.31575    1.000
    N3748    N        0.58032    0.99584    0.33144    1.000
    N3749    N        0.58523    0.77051    0.41912    1.000
    Si3750   Si       0.60187    0.81937    0.43394    1.000
    N3751    N        0.61606    0.86192    0.44382    1.000
    N3752    N        0.62354    0.82589    0.39451    1.000
    N3753    N        0.59461    0.77022    0.48940    1.000
    N3754    N        0.63195    0.76958    0.36988    1.000
    Si3755   Si       0.60655    0.96797    0.49630    1.000
    N3756    N        0.61371    0.92354    0.49288    1.000
    N3757    N        0.62810    0.99168    0.46350    1.000
    Si3758   Si       0.60925    0.98784    0.42407    1.000
    N3759    N        0.61238    0.96153    0.39003    1.000
    Si3760   Si       0.59623    0.89598    0.46331    1.000
    N3761    N        0.62501    0.89019    0.37602    1.000
    Si3762   Si       0.59570    0.92252    0.38969    1.000
    N3763    N        0.60371    0.80651    0.55103    1.000
    Si3764   Si       0.61571    0.77093    0.52801    1.000
    Si3765   Si       0.59232    0.87343    0.59452    1.000
    N3766    N        0.60958    0.78126    0.61238    1.000
    Si3767   Si       0.58165    0.80518    0.58939    1.000
    N3768    N        0.63352    0.85617    0.58574    1.000
    Si3769   Si       0.60737    0.98465    0.57247    1.000
    N3770    N        0.62606    0.97678    0.53435    1.000
    N3771    N        0.60388    0.92611    0.72733    1.000
    N3772    N        0.57822    0.88224    0.55555    1.000
    N3773    N        0.63150    0.77023    0.69814    1.000
    Si3774   Si       0.60950    0.80564    0.71290    1.000
    N3775    N        0.59900    0.90464    0.62445    1.000
    Si3776   Si       0.58325    0.97667    0.67028    1.000
    N3777    N        0.62373    0.95500    0.66851    1.000
    Si3778   Si       0.63006    0.93395    0.62954    1.000
    N3779    N        0.57699    0.81293    0.68698    1.000
    N3780    N        0.61760    0.84061    0.82070    1.000
    Si3781   Si       0.61920    0.80122    0.83952    1.000
    N3782    N        0.62098    0.77109    0.81003    1.000
    Si3783   Si       0.59501    0.76649    0.77692    1.000
    N3784    N        0.59263    0.80413    0.75387    1.000
    Si3785   Si       0.58102    0.86329    0.82153    1.000
    N3786    N        0.58592    0.80631    0.86831    1.000
    N3787    N        0.57836    0.87579    0.86378    1.000
    Si3788   Si       0.59862    0.89379    0.75531    1.000
    Si3789   Si       0.60639    0.93208    0.82273    1.000
    N3790    N        0.58664    0.89925    0.79834    1.000
    N3791    N        0.61025    0.99747    0.77243    1.000
    N3792    N        0.62048    0.93023    0.86563    1.000
    Si3793   Si       0.60632    0.86555    0.94078    1.000
    N3794    N        0.59776    0.77476    0.92437    1.000
    N3795    N        0.61138    0.87715    0.98259    1.000
    N3796    N        0.60386    0.98307    0.98134    1.000
    N3797    N        0.61292    0.90176    0.92049    1.000
    Si3798   Si       0.58775    0.91051    0.88587    1.000
    N3799    N        0.59028    0.99851    0.91257    1.000
    Si3800   Si       0.62208    0.99249    0.94394    1.000
    N3801    N        0.63582    0.87286    0.76082    1.000
    Si3802   Si       0.63366    0.79653    0.90906    1.000
    N3803    N        0.61102    0.75746    0.99156    1.000
    N3804    N        0.65428    0.06476    0.05417    1.000
    Si3805   Si       0.66952    0.08499    0.01950    1.000
    Si3806   Si       0.67803    0.02753    0.05107    1.000
    Si3807   Si       0.68915    0.11000    0.11306    1.000
    Si3808   Si       0.65574    0.22593    0.14763    1.000
    N3809    N        0.67396    0.14281    0.08917    1.000
    N3810    N        0.66845    0.20386    0.04600    1.000
    N3811    N        0.66759    0.23824    0.10786    1.000
    Si3812   Si       0.67841    0.21429    0.00481    1.000
    Si3813   Si       0.69174    0.21378    0.08272    1.000
    N3814    N        0.63877    0.02059    0.23017    1.000
    N3815    N        0.65777    0.08052    0.11910    1.000
    N3816    N        0.67129    0.06934    0.18431    1.000
    Si3817   Si       0.64335    0.05827    0.15473    1.000
    Si3818   Si       0.67518    0.04209    0.21713    1.000
    N3819    N        0.64248    0.01513    0.16221    1.000
    Si3820   Si       0.68685    0.15547    0.24378    1.000
    N3821    N        0.67501    0.13553    0.20619    1.000
    N3822    N        0.67517    0.18934    0.16317    1.000
    Si3823   Si       0.64848    0.15997    0.18277    1.000
    Si3824   Si       0.64792    0.03578    0.27065    1.000
    N3825    N        0.67080    0.06456    0.31770    1.000
    Si3826   Si       0.68025    0.02164    0.32701    1.000
    N3827    N        0.67518    0.06557    0.25230    1.000
    Si3828   Si       0.67211    0.09802    0.34944    1.000
    N3829    N        0.64589    0.01064    0.34873    1.000
    N3830    N        0.65356    0.13040    0.32305    1.000
    N3831    N        0.69347    0.22670    0.38382    1.000
    Si3832   Si       0.66980    0.22523    0.27654    1.000
    N3833    N        0.67092    0.18176    0.27505    1.000
    N3834    N        0.67947    0.24690    0.31319    1.000
    Si3835   Si       0.68496    0.15481    0.30624    1.000
    N3836    N        0.66808    0.06787    0.38237    1.000
    Si3837   Si       0.65417    0.09786    0.47853    1.000
    N3838    N        0.66178    0.06212    0.45437    1.000
    Si3839   Si       0.66290    0.01815    0.46442    1.000
    Si3840   Si       0.68641    0.05429    0.41863    1.000
    N3841    N        0.68557    0.01057    0.42680    1.000
    Si3842   Si       0.66472    0.17196    0.46242    1.000
    Si3843   Si       0.69031    0.21941    0.49761    1.000
    Si3844   Si       0.68707    0.22982    0.42665    1.000
    N3845    N        0.68108    0.13691    0.47946    1.000
    N3846    N        0.67040    0.13343    0.38388    1.000
    N3847    N        0.64387    0.24150    0.42558    1.000
    N3848    N        0.64879    0.20008    0.49053    1.000
    N3849    N        0.66464    0.02607    0.56241    1.000
    N3850    N        0.66285    0.08495    0.52080    1.000
    Si3851   Si       0.65311    0.11188    0.55401    1.000
    Si3852   Si       0.68338    0.04872    0.53118    1.000
    N3853    N        0.68182    0.01626    0.50284    1.000
    N3854    N        0.69056    0.12704    0.56454    1.000
    N3855    N        0.64655    0.16340    0.60714    1.000
    Si3856   Si       0.68489    0.24250    0.57179    1.000
    Si3857   Si       0.68810    0.16006    0.59289    1.000
    N3858    N        0.68555    0.25012    0.52879    1.000
    N3859    N        0.64922    0.24923    0.59596    1.000
    N3860    N        0.65501    0.03228    0.62124    1.000
    N3861    N        0.66738    0.01582    0.67772    1.000
    Si3862   Si       0.66673    0.05453    0.65691    1.000
    N3863    N        0.66273    0.17408    0.74055    1.000
    Si3864   Si       0.67007    0.22830    0.68415    1.000
    Si3865   Si       0.63850    0.16900    0.64781    1.000
    N3866    N        0.64719    0.23947    0.71954    1.000
    N3867    N        0.66348    0.14304    0.67702    1.000
    Si3868   Si       0.68961    0.16635    0.70690    1.000
    N3869    N        0.63921    0.20844    0.65947    1.000
    N3870    N        0.65122    0.03844    0.80529    1.000
    N3871    N        0.64704    0.08853    0.85117    1.000
    Si3872   Si       0.69009    0.02133    0.80271    1.000
    Si3873   Si       0.67035    0.12498    0.84120    1.000
    N3874    N        0.69207    0.10767    0.75207    1.000
    Si3875   Si       0.67948    0.14602    0.77003    1.000
    N3876    N        0.65313    0.14280    0.80552    1.000
    N3877    N        0.66975    0.22131    0.85803    1.000
    Si3878   Si       0.65263    0.21323    0.75526    1.000
    N3879    N        0.68971    0.22822    0.77054    1.000
    N3880    N        0.65093    0.02691    0.88204    1.000
    Si3881   Si       0.68267    0.03015    0.97279    1.000
    N3882    N        0.64633    0.08975    0.98345    1.000
    Si3883   Si       0.65911    0.06967    0.88811    1.000
    Si3884   Si       0.66611    0.11781    0.95707    1.000
    N3885    N        0.66890    0.09420    0.92186    1.000
    N3886    N        0.64389    0.02906    0.95090    1.000
    Si3887   Si       0.68546    0.18835    0.88149    1.000
    N3888    N        0.64391    0.22245    0.97526    1.000
    N3889    N        0.66223    0.15279    0.87462    1.000
    Si3890   Si       0.65416    0.19397    0.94227    1.000
    N3891    N        0.69326    0.18686    0.92451    1.000
    N3892    N        0.64489    0.15318    0.95544    1.000
    Si3893   Si       0.69461    0.01854    0.87996    1.000
    N3894    N        0.66284    0.03891    0.74072    1.000
    N3895    N        0.66664    0.28923    0.05814    1.000
    Si3896   Si       0.64870    0.27498    0.09357    1.000
    Si3897   Si       0.64156    0.30673    0.02589    1.000
    N3898    N        0.68924    0.25751    0.00193    1.000
    N3899    N        0.67693    0.38553    0.05123    1.000
    Si3900   Si       0.68456    0.42285    0.07021    1.000
    Si3901   Si       0.68504    0.49450    0.04386    1.000
    N3902    N        0.66523    0.45390    0.04712    1.000
    N3903    N        0.66365    0.42782    0.10699    1.000
    Si3904   Si       0.65499    0.46870    0.11937    1.000
    N3905    N        0.69389    0.32465    0.15617    1.000
    Si3906   Si       0.65019    0.32807    0.15291    1.000
    N3907    N        0.65810    0.37241    0.14616    1.000
    N3908    N        0.65756    0.29411    0.23482    1.000
    N3909    N        0.66851    0.26037    0.17020    1.000
    Si3910   Si       0.64009    0.27724    0.20074    1.000
    N3911    N        0.64344    0.47990    0.16085    1.000
    Si3912   Si       0.66562    0.46190    0.24119    1.000
    N3913    N        0.69091    0.49644    0.12366    1.000
    Si3914   Si       0.63544    0.37896    0.05354    1.000
    Si3915   Si       0.65958    0.32178    0.26848    1.000
    N3916    N        0.68513    0.37602    0.32442    1.000
    N3917    N        0.64250    0.36213    0.27206    1.000
    N3918    N        0.64651    0.26918    0.36005    1.000
    N3919    N        0.63922    0.30497    0.30021    1.000
    Si3920   Si       0.65283    0.38304    0.35274    1.000
    Si3921   Si       0.69134    0.25970    0.35189    1.000
    Si3922   Si       0.69098    0.44224    0.36207    1.000
    Si3923   Si       0.67416    0.39041    0.28348    1.000
    N3924    N        0.67160    0.46511    0.32971    1.000
    N3925    N        0.66053    0.43281    0.27345    1.000
    N3926    N        0.67998    0.49748    0.25997    1.000
    Si3927   Si       0.63977    0.44530    0.31139    1.000
    Si3928   Si       0.66503    0.50396    0.35990    1.000
    Si3929   Si       0.69276    0.49333    0.30246    1.000
    Si3930   Si       0.63840    0.35075    0.42178    1.000
    Si3931   Si       0.65591    0.30933    0.37456    1.000
    Si3932   Si       0.65439    0.27630    0.45181    1.000
    N3933    N        0.67445    0.31236    0.48115    1.000
    N3934    N        0.67752    0.36342    0.43549    1.000
    N3935    N        0.64896    0.30385    0.41705    1.000
    N3936    N        0.64040    0.34971    0.37479    1.000
    Si3937   Si       0.68394    0.40357    0.42107    1.000
    N3938    N        0.66371    0.43284    0.44468    1.000
    N3939    N        0.69103    0.47491    0.38842    1.000
    N3940    N        0.67047    0.41061    0.38170    1.000
    Si3941   Si       0.65263    0.49870    0.46227    1.000
    Si3942   Si       0.68631    0.45204    0.47532    1.000
    Si3943   Si       0.65963    0.35331    0.54794    1.000
    N3944    N        0.67965    0.31398    0.55133    1.000
    N3945    N        0.65049    0.37226    0.58762    1.000
    N3946    N        0.66674    0.31464    0.61954    1.000
    Si3947   Si       0.66236    0.41541    0.58888    1.000
    N3948    N        0.67412    0.43756    0.55463    1.000
    Si3949   Si       0.64837    0.46936    0.54191    1.000
    N3950    N        0.65077    0.46947    0.49736    1.000
    Si3951   Si       0.64382    0.35209    0.62453    1.000
    N3952    N        0.68804    0.26103    0.66333    1.000
    Si3953   Si       0.65703    0.27522    0.63111    1.000
    N3954    N        0.66784    0.35690    0.71683    1.000
    N3955    N        0.66513    0.37653    0.65334    1.000
    N3956    N        0.65079    0.45404    0.66381    1.000
    Si3957   Si       0.69087    0.33008    0.74332    1.000
    Si3958   Si       0.67769    0.41977    0.65612    1.000
    Si3959   Si       0.65686    0.48478    0.69539    1.000
    N3960    N        0.66504    0.30095    0.76304    1.000
    N3961    N        0.67408    0.32887    0.85956    1.000
    Si3962   Si       0.68078    0.28625    0.86125    1.000
    N3963    N        0.68787    0.27058    0.82188    1.000
    Si3964   Si       0.69102    0.27028    0.77937    1.000
    Si3965   Si       0.68687    0.39109    0.78233    1.000
    N3966    N        0.68650    0.40735    0.82355    1.000
    N3967    N        0.64581    0.38977    0.76959    1.000
    Si3968   Si       0.65034    0.40138    0.84733    1.000
    Si3969   Si       0.64468    0.49196    0.81959    1.000
    N3970    N        0.68165    0.47875    0.80292    1.000
    N3971    N        0.64110    0.49458    0.86316    1.000
    Si3972   Si       0.68878    0.43163    0.96910    1.000
    N3973    N        0.64963    0.27459    0.88870    1.000
    Si3974   Si       0.64729    0.26707    0.98090    1.000
    Si3975   Si       0.68990    0.35233    0.89172    1.000
    Si3976   Si       0.66561    0.35096    0.96551    1.000
    N3977    N        0.66971    0.33228    0.92575    1.000
    N3978    N        0.66459    0.31057    0.98868    1.000
    Si3979   Si       0.67257    0.49054    0.89754    1.000
    N3980    N        0.67055    0.39433    0.95372    1.000
    Si3981   Si       0.64909    0.41031    0.92018    1.000
    N3982    N        0.65303    0.45207    0.90770    1.000
    N3983    N        0.65665    0.45682    0.98002    1.000
    Si3984   Si       0.66329    0.49782    0.97586    1.000
    N3985    N        0.66583    0.38958    0.88592    1.000
    Si3986   Si       0.67018    0.55897    0.07796    1.000
    N3987    N        0.65606    0.52338    0.05535    1.000
    N3988    N        0.68638    0.58329    0.04517    1.000
    Si3989   Si       0.65317    0.60846    0.03181    1.000
    N3990    N        0.63902    0.57660    0.10456    1.000
    N3991    N        0.65045    0.63348    0.06816    1.000
    N3992    N        0.66406    0.62950    0.99506    1.000
    N3993    N        0.66126    0.66513    0.17563    1.000
    N3994    N        0.69245    0.67588    0.04720    1.000
    Si3995   Si       0.66896    0.66959    0.00840    1.000
    Si3996   Si       0.68758    0.65182    0.08050    1.000
    N3997    N        0.68592    0.67631    0.11645    1.000
    Si3998   Si       0.66299    0.70490    0.19814    1.000
    Si3999   Si       0.67995    0.58169    0.18269    1.000
    N4000    N        0.65042    0.60590    0.20387    1.000
    N4001    N        0.65656    0.54865    0.16551    1.000
    Si4002   Si       0.67486    0.50996    0.16535    1.000
    Si4003   Si       0.64563    0.67807    0.13660    1.000
    N4004    N        0.66304    0.73633    0.16714    1.000
    Si4005   Si       0.66602    0.61455    0.32171    1.000
    N4006    N        0.67202    0.52828    0.32302    1.000
    N4007    N        0.64964    0.59090    0.28751    1.000
    N4008    N        0.65012    0.58684    0.35179    1.000
    Si4009   Si       0.64092    0.55988    0.31732    1.000
    Si4010   Si       0.63561    0.60644    0.24803    1.000
    Si4011   Si       0.65656    0.67281    0.28036    1.000
    N4012    N        0.65612    0.70713    0.36057    1.000
    N4013    N        0.64921    0.65358    0.32071    1.000
    Si4014   Si       0.65711    0.74779    0.33954    1.000
    Si4015   Si       0.64121    0.75126    0.27107    1.000
    Si4016   Si       0.67650    0.57481    0.38449    1.000
    N4017    N        0.65441    0.59942    0.41311    1.000
    N4018    N        0.67605    0.53231    0.39054    1.000
    N4019    N        0.64524    0.53368    0.48442    1.000
    N4020    N        0.64104    0.65789    0.44988    1.000
    Si4021   Si       0.65412    0.69577    0.46978    1.000
    Si4022   Si       0.69386    0.69540    0.37975    1.000
    N4023    N        0.68973    0.65954    0.40213    1.000
    Si4024   Si       0.67211    0.63403    0.43096    1.000
    N4025    N        0.65496    0.57893    0.53261    1.000
    N4026    N        0.66604    0.61729    0.58804    1.000
    Si4027   Si       0.66601    0.53846    0.52268    1.000
    N4028    N        0.67474    0.55195    0.60789    1.000
    Si4029   Si       0.68659    0.60040    0.55295    1.000
    Si4030   Si       0.64142    0.52976    0.59446    1.000
    N4031    N        0.65101    0.51101    0.55505    1.000
    Si4032   Si       0.65148    0.58825    0.61883    1.000
    Si4033   Si       0.65397    0.65799    0.59421    1.000
    N4034    N        0.69117    0.68115    0.58816    1.000
    N4035    N        0.65661    0.73502    0.62700    1.000
    N4036    N        0.64618    0.59064    0.73173    1.000
    N4037    N        0.66917    0.60615    0.65505    1.000
    N4038    N        0.66339    0.52908    0.69699    1.000
    Si4039   Si       0.68057    0.61751    0.72844    1.000
    N4040    N        0.67228    0.65283    0.70390    1.000
    N4041    N        0.67869    0.72484    0.71836    1.000
    N4042    N        0.64103    0.66805    0.63585    1.000
    Si4043   Si       0.64810    0.64126    0.66988    1.000
    Si4044   Si       0.63386    0.73174    0.71604    1.000
    Si4045   Si       0.66439    0.62479    0.80421    1.000
    Si4046   Si       0.64972    0.55774    0.77344    1.000
    N4047    N        0.65138    0.53421    0.81124    1.000
    Si4048   Si       0.66666    0.55885    0.84470    1.000
    N4049    N        0.68602    0.59597    0.82998    1.000
    N4050    N        0.68841    0.54296    0.75937    1.000
    N4051    N        0.69186    0.63209    0.76874    1.000
    Si4052   Si       0.65855    0.69108    0.84446    1.000
    N4053    N        0.66915    0.71892    0.81490    1.000
    Si4054   Si       0.65074    0.74688    0.78756    1.000
    N4055    N        0.64276    0.65662    0.82129    1.000
    N4056    N        0.68593    0.54473    0.88196    1.000
    Si4057   Si       0.67887    0.62289    0.95590    1.000
    Si4058   Si       0.67241    0.55371    0.92303    1.000
    N4059    N        0.68887    0.58192    0.94971    1.000
    N4060    N        0.67165    0.51111    0.93571    1.000
    N4061    N        0.64929    0.64410    0.92805    1.000
    Si4062   Si       0.64524    0.73047    0.91183    1.000
    N4063    N        0.67903    0.70455    0.92522    1.000
    Si4064   Si       0.68130    0.66460    0.90858    1.000
    N4065    N        0.63389    0.71328    0.87285    1.000
    N4066    N        0.69085    0.67159    0.86627    1.000
    N4067    N        0.67035    0.82122    0.07478    1.000
    Si4068   Si       0.66870    0.86485    0.07447    1.000
    Si4069   Si       0.67506    0.79729    0.03728    1.000
    Si4070   Si       0.66267    0.80356    0.11325    1.000
    N4071    N        0.65454    0.81545    0.00247    1.000
    N4072    N        0.64675    0.88003    0.04168    1.000
    N4073    N        0.65900    0.88234    0.11318    1.000
    N4074    N        0.68370    0.91611    0.20265    1.000
    Si4075   Si       0.68351    0.96266    0.00657    1.000
    Si4076   Si       0.64970    0.96556    0.06763    1.000
    N4077    N        0.66962    0.98933    0.03644    1.000
    N4078    N        0.68152    0.93773    0.07850    1.000
    N4079    N        0.64314    0.00103    0.09372    1.000
    N4080    N        0.65069    0.93456    0.99846    1.000
    Si4081   Si       0.65011    0.89029    0.99943    1.000
    Si4082   Si       0.67848    0.92023    0.11660    1.000
    Si4083   Si       0.64757    0.86358    0.15304    1.000
    N4084    N        0.68243    0.84984    0.17988    1.000
    Si4085   Si       0.64836    0.92660    0.22560    1.000
    N4086    N        0.64935    0.94861    0.13470    1.000
    Si4087   Si       0.66282    0.98946    0.13295    1.000
    N4088    N        0.69715    0.79291    0.13938    1.000
    N4089    N        0.65413    0.75787    0.04024    1.000
    Si4090   Si       0.66158    0.81301    0.30235    1.000
    Si4091   Si       0.65003    0.87378    0.26932    1.000
    N4092    N        0.68919    0.86972    0.25018    1.000
    N4093    N        0.64422    0.83360    0.33678    1.000
    N4094    N        0.68230    0.76172    0.25979    1.000
    N4095    N        0.63901    0.83211    0.27073    1.000
    N4096    N        0.64057    0.77567    0.30765    1.000
    N4097    N        0.66231    0.89082    0.30610    1.000
    N4098    N        0.66699    0.94648    0.26110    1.000
    Si4099   Si       0.66111    0.93408    0.30275    1.000
    N4100    N        0.69157    0.79852    0.41265    1.000
    Si4101   Si       0.67164    0.78938    0.47246    1.000
    N4102    N        0.68022    0.86472    0.41566    1.000
    Si4103   Si       0.65146    0.79321    0.40285    1.000
    Si4104   Si       0.63790    0.86386    0.40633    1.000
    N4105    N        0.63883    0.79021    0.44539    1.000
    Si4106   Si       0.68293    0.89690    0.44539    1.000
    N4107    N        0.66753    0.88611    0.48498    1.000
    N4108    N        0.67798    0.93759    0.43186    1.000
    N4109    N        0.67541    0.00670    0.28763    1.000
    N4110    N        0.67715    0.83140    0.53689    1.000
    N4111    N        0.66587    0.78741    0.57739    1.000
    N4112    N        0.65547    0.77697    0.51134    1.000
    Si4113   Si       0.64166    0.82259    0.56127    1.000
    Si4114   Si       0.69045    0.78650    0.54169    1.000
    Si4115   Si       0.69080    0.85375    0.50119    1.000
    Si4116   Si       0.65196    0.77607    0.61492    1.000
    Si4117   Si       0.66628    0.88336    0.59018    1.000
    Si4118   Si       0.65314    0.91646    0.51247    1.000
    Si4119   Si       0.66977    0.98662    0.53042    1.000
    N4120    N        0.66865    0.90825    0.55307    1.000
    N4121    N        0.68277    0.94804    0.50595    1.000
    Si4122   Si       0.67650    0.99626    0.59668    1.000
    N4123    N        0.69105    0.97014    0.56492    1.000
    N4124    N        0.66782    0.91360    0.61996    1.000
    Si4125   Si       0.65917    0.86622    0.72673    1.000
    N4126    N        0.67053    0.80514    0.64241    1.000
    Si4127   Si       0.66343    0.79867    0.68615    1.000
    N4128    N        0.64109    0.83141    0.70472    1.000
    N4129    N        0.66795    0.90200    0.70099    1.000
    N4130    N        0.65394    0.96864    0.72827    1.000
    Si4131   Si       0.63869    0.99907    0.64887    1.000
    Si4132   Si       0.67601    0.00382    0.71680    1.000
    Si4133   Si       0.63948    0.93569    0.70419    1.000
    N4134    N        0.63597    0.97437    0.60818    1.000
    Si4135   Si       0.64997    0.85904    0.79899    1.000
    N4136    N        0.68129    0.82879    0.80101    1.000
    N4137    N        0.68617    0.76520    0.76856    1.000
    N4138    N        0.65278    0.79420    0.87017    1.000
    N4139    N        0.68297    0.90670    0.89788    1.000
    N4140    N        0.67670    0.88507    0.82307    1.000
    Si4141   Si       0.68031    0.92472    0.80683    1.000
    N4142    N        0.68440    0.98373    0.78325    1.000
    Si4143   Si       0.64507    0.97144    0.77183    1.000
    N4144    N        0.64136    0.93990    0.80002    1.000
    Si4145   Si       0.66616    0.83513    0.96627    1.000
    N4146    N        0.66280    0.76906    0.92584    1.000
    N4147    N        0.67459    0.87758    0.96578    1.000
    N4148    N        0.63603    0.83376    0.93261    1.000
    N4149    N        0.65063    0.96292    0.92750    1.000
    Si4150   Si       0.69477    0.96673    0.93468    1.000
    N4151    N        0.69383    0.98947    0.97433    1.000
    Si4152   Si       0.64516    0.92631    0.90256    1.000
    N4153    N        0.72221    0.10350    0.08543    1.000
    N4154    N        0.71351    0.02683    0.07971    1.000
    Si4155   Si       0.73532    0.06281    0.07976    1.000
    Si4156   Si       0.73544    0.01061    0.11698    1.000
    N4157    N        0.75135    0.08904    0.00609    1.000
    Si4158   Si       0.72806    0.12414    0.99444    1.000
    N4159    N        0.69642    0.12069    0.02307    1.000
    N4160    N        0.70064    0.00392    0.22103    1.000
    Si4161   Si       0.71080    0.14011    0.06141    1.000
    N4162    N        0.71904    0.24573    0.06981    1.000
    N4163    N        0.71981    0.19022    0.10872    1.000
    N4164    N        0.74351    0.16711    0.05528    1.000
    Si4165   Si       0.69775    0.10566    0.18442    1.000
    N4166    N        0.70292    0.12796    0.14741    1.000
    N4167    N        0.73479    0.08558    0.19390    1.000
    N4168    N        0.72262    0.17800    0.23429    1.000
    Si4169   Si       0.71175    0.17039    0.14699    1.000
    N4170    N        0.69519    0.04817    0.01174    1.000
    N4171    N        0.71355    0.11271    0.34528    1.000
    N4172    N        0.73357    0.07449    0.29553    1.000
    N4173    N        0.72043    0.01219    0.34332    1.000
    N4174    N        0.69661    0.12635    0.27393    1.000
    Si4175   Si       0.69342    0.08584    0.28507    1.000
    N4176    N        0.70327    0.24074    0.25117    1.000
    Si4177   Si       0.73891    0.21576    0.25069    1.000
    N4178    N        0.71272    0.17572    0.33127    1.000
    N4179    N        0.73459    0.25632    0.34899    1.000
    Si4180   Si       0.70719    0.14905    0.36667    1.000
    N4181    N        0.72874    0.06655    0.41947    1.000
    N4182    N        0.75035    0.22481    0.41386    1.000
    N4183    N        0.69709    0.19434    0.44788    1.000
    Si4184   Si       0.73553    0.18644    0.43267    1.000
    Si4185   Si       0.72371    0.15099    0.49269    1.000
    N4186    N        0.73368    0.16765    0.39296    1.000
    Si4187   Si       0.73452    0.21773    0.37372    1.000
    N4188    N        0.69522    0.25545    0.46102    1.000
    N4189    N        0.75232    0.21406    0.29270    1.000
    N4190    N        0.72378    0.06287    0.53667    1.000
    Si4191   Si       0.72621    0.10391    0.55187    1.000
    N4192    N        0.74594    0.12535    0.52016    1.000
    N4193    N        0.71886    0.19015    0.51447    1.000
    Si4194   Si       0.73588    0.19682    0.55287    1.000
    N4195    N        0.69631    0.19917    0.57625    1.000
    Si4196   Si       0.70155    0.12476    0.66146    1.000
    Si4197   Si       0.73958    0.10894    0.73003    1.000
    Si4198   Si       0.73432    0.06167    0.67473    1.000
    N4199    N        0.72923    0.06419    0.72001    1.000
    Si4200   Si       0.74736    0.01935    0.72025    1.000
    N4201    N        0.74539    0.02041    0.67457    1.000
    N4202    N        0.70015    0.08254    0.65901    1.000
    N4203    N        0.71217    0.14574    0.62604    1.000
    N4204    N        0.70477    0.20513    0.69833    1.000
    N4205    N        0.71898    0.13716    0.70079    1.000
    Si4206   Si       0.74391    0.21843    0.70811    1.000
    N4207    N        0.75143    0.10498    0.58772    1.000
    Si4208   Si       0.75281    0.14095    0.61256    1.000
    N4209    N        0.71629    0.04987    0.78357    1.000
    N4210    N        0.71278    0.11667    0.83703    1.000
    Si4211   Si       0.73338    0.08836    0.86275    1.000
    Si4212   Si       0.69529    0.06535    0.74843    1.000
    N4213    N        0.70609    0.01029    0.83976    1.000
    Si4214   Si       0.72098    0.16860    0.95194    1.000
    Si4215   Si       0.74135    0.13701    0.80353    1.000
    Si4216   Si       0.70880    0.23667    0.84537    1.000
    N4217    N        0.74067    0.22923    0.81504    1.000
    Si4218   Si       0.72758    0.20709    0.77688    1.000
    N4219    N        0.71729    0.16518    0.78229    1.000
    N4220    N        0.72619    0.19779    0.86601    1.000
    N4221    N        0.70947    0.12507    0.95535    1.000
    N4222    N        0.70345    0.06323    0.88207    1.000
    Si4223   Si       0.71301    0.08836    0.92656    1.000
    N4224    N        0.71391    0.05540    0.95404    1.000
    N4225    N        0.74804    0.09820    0.90412    1.000
    N4226    N        0.70449    0.18690    0.98604    1.000
    N4227    N        0.74820    0.23711    0.93036    1.000
    N4228    N        0.75510    0.10787    0.77304    1.000
    Si4229   Si       0.73273    0.05413    0.99323    1.000
    N4230    N        0.73059    0.30118    0.02414    1.000
    N4231    N        0.74009    0.36108    0.04638    1.000
    Si4232   Si       0.71056    0.37652    0.01834    1.000
    Si4233   Si       0.70290    0.27239    0.04089    1.000
    Si4234   Si       0.75158    0.25913    0.09676    1.000
    N4235    N        0.72003    0.37970    0.11185    1.000
    Si4236   Si       0.74580    0.39028    0.08018    1.000
    N4237    N        0.72902    0.42667    0.06426    1.000
    N4238    N        0.72386    0.49496    0.06362    1.000
    Si4239   Si       0.74773    0.46258    0.04791    1.000
    N4240    N        0.74972    0.46924    0.00407    1.000
    N4241    N        0.71770    0.41342    0.99852    1.000
    Si4242   Si       0.70582    0.28238    0.16453    1.000
    N4243    N        0.72154    0.28954    0.20400    1.000
    N4244    N        0.73238    0.26732    0.13513    1.000
    Si4245   Si       0.69959    0.36758    0.14762    1.000
    Si4246   Si       0.69917    0.28100    0.23847    1.000
    N4247    N        0.74664    0.44734    0.16948    1.000
    N4248    N        0.69867    0.44296    0.21887    1.000
    N4249    N        0.71509    0.38518    0.18379    1.000
    Si4250   Si       0.71534    0.40286    0.22350    1.000
    N4251    N        0.70403    0.50575    0.19666    1.000
    Si4252   Si       0.72737    0.46903    0.20084    1.000
    N4253    N        0.69558    0.50631    0.00358    1.000
    Si4254   Si       0.71516    0.34791    0.34171    1.000
    Si4255   Si       0.72780    0.34622    0.26926    1.000
    N4256    N        0.70241    0.31174    0.26867    1.000
    N4257    N        0.74395    0.34954    0.30903    1.000
    N4258    N        0.69496    0.31065    0.35540    1.000
    N4259    N        0.70706    0.38062    0.25777    1.000
    N4260    N        0.73340    0.47437    0.29888    1.000
    N4261    N        0.73086    0.42895    0.35928    1.000
    N4262    N        0.73649    0.36053    0.37956    1.000
    N4263    N        0.72876    0.31222    0.43442    1.000
    Si4264   Si       0.73410    0.27882    0.46119    1.000
    N4265    N        0.73497    0.36098    0.47788    1.000
    Si4266   Si       0.70097    0.33785    0.46002    1.000
    Si4267   Si       0.70456    0.50855    0.41398    1.000
    N4268    N        0.71745    0.42933    0.49311    1.000
    Si4269   Si       0.74220    0.40376    0.46616    1.000
    N4270    N        0.69607    0.49149    0.45872    1.000
    N4271    N        0.74737    0.50411    0.41497    1.000
    N4272    N        0.72748    0.40996    0.42691    1.000
    Si4273   Si       0.74809    0.40287    0.38823    1.000
    N4274    N        0.73084    0.34139    0.59291    1.000
    Si4275   Si       0.73244    0.36816    0.55853    1.000
    N4276    N        0.71079    0.27091    0.59079    1.000
    N4277    N        0.73429    0.29779    0.50164    1.000
    N4278    N        0.69529    0.37684    0.53857    1.000
    Si4279   Si       0.69751    0.31179    0.59085    1.000
    Si4280   Si       0.75298    0.27132    0.60336    1.000
    Si4281   Si       0.69225    0.29083    0.51733    1.000
    Si4282   Si       0.70818    0.41906    0.53461    1.000
    N4283    N        0.74090    0.41157    0.56391    1.000
    Si4284   Si       0.73868    0.42980    0.60618    1.000
    N4285    N        0.69672    0.42453    0.61686    1.000
    Si4286   Si       0.71221    0.43386    0.71994    1.000
    Si4287   Si       0.72137    0.28597    0.67368    1.000
    N4288    N        0.73347    0.35506    0.66147    1.000
    N4289    N        0.71515    0.31242    0.70953    1.000
    N4290    N        0.74325    0.48413    0.65304    1.000
    N4291    N        0.75001    0.26007    0.69738    1.000
    N4292    N        0.75103    0.29366    0.64203    1.000
    N4293    N        0.70808    0.40677    0.68724    1.000
    N4294    N        0.69535    0.47188    0.70800    1.000
    Si4295   Si       0.73614    0.48758    0.69669    1.000
    Si4296   Si       0.74846    0.39292    0.67658    1.000
    N4297    N        0.75255    0.45240    0.71510    1.000
    Si4298   Si       0.69499    0.36457    0.68185    1.000
    N4299    N        0.72925    0.28279    0.76674    1.000
    N4300    N        0.70741    0.35301    0.77691    1.000
    N4301    N        0.74148    0.36782    0.83990    1.000
    Si4302   Si       0.73875    0.34022    0.80585    1.000
    N4303    N        0.71987    0.44849    0.94388    1.000
    N4304    N        0.74475    0.43587    0.81540    1.000
    Si4305   Si       0.71799    0.45563    0.78871    1.000
    Si4306   Si       0.72515    0.40964    0.84231    1.000
    N4307    N        0.73896    0.49447    0.78050    1.000
    N4308    N        0.70619    0.42470    0.76087    1.000
    Si4309   Si       0.73885    0.27395    0.91441    1.000
    N4310    N        0.72944    0.35300    0.90552    1.000
    N4311    N        0.72606    0.29798    0.94849    1.000
    Si4312   Si       0.73467    0.34048    0.94643    1.000
    N4313    N        0.70901    0.35000    0.98407    1.000
    N4314    N        0.71498    0.26693    0.87901    1.000
    Si4315   Si       0.70605    0.30189    0.98804    1.000
    Si4316   Si       0.73623    0.45407    0.90404    1.000
    N4317    N        0.74574    0.41782    0.87973    1.000
    N4318    N        0.71203    0.48246    0.88092    1.000
    Si4319   Si       0.74676    0.43576    0.97645    1.000
    Si4320   Si       0.73572    0.50935    0.99279    1.000
    N4321    N        0.70693    0.55803    0.10040    1.000
    Si4322   Si       0.72587    0.59464    0.04762    1.000
    N4323    N        0.72347    0.62697    0.08207    1.000
    Si4324   Si       0.72308    0.51606    0.10164    1.000
    N4325    N        0.73685    0.58922    0.00103    1.000
    Si4326   Si       0.72318    0.59403    0.11566    1.000
    Si4327   Si       0.72642    0.68770    0.02290    1.000
    N4328    N        0.74341    0.72593    0.03193    1.000
    Si4329   Si       0.70684    0.53079    0.23610    1.000
    Si4330   Si       0.73505    0.60245    0.21899    1.000
    N4331    N        0.70712    0.56884    0.21432    1.000
    N4332    N        0.70173    0.60601    0.15289    1.000
    Si4333   Si       0.70164    0.64839    0.17150    1.000
    N4334    N        0.70059    0.71062    0.21915    1.000
    Si4335   Si       0.71813    0.67533    0.23515    1.000
    Si4336   Si       0.71196    0.75128    0.23127    1.000
    N4337    N        0.71269    0.63882    0.21228    1.000
    Si4338   Si       0.72498    0.69204    0.12384    1.000
    Si4339   Si       0.70089    0.75327    0.16014    1.000
    N4340    N        0.72435    0.73513    0.12762    1.000
    N4341    N        0.73787    0.67145    0.15967    1.000
    N4342    N        0.75090    0.68893    0.08922    1.000
    Si4343   Si       0.73841    0.75717    0.00461    1.000
    N4344    N        0.70877    0.61797    0.32288    1.000
    Si4345   Si       0.73611    0.60222    0.35188    1.000
    N4346    N        0.73864    0.53762    0.26753    1.000
    N4347    N        0.74044    0.60533    0.26163    1.000
    Si4348   Si       0.72683    0.63673    0.28984    1.000
    N4349    N        0.72370    0.69402    0.34693    1.000
    Si4350   Si       0.72924    0.73799    0.35190    1.000
    N4351    N        0.69829    0.66700    0.27274    1.000
    N4352    N        0.69909    0.75701    0.32744    1.000
    N4353    N        0.69334    0.75321    0.46423    1.000
    Si4354   Si       0.72416    0.52250    0.47625    1.000
    N4355    N        0.71843    0.59009    0.38929    1.000
    N4356    N        0.70091    0.62204    0.45935    1.000
    N4357    N        0.71492    0.55412    0.44758    1.000
    Si4358   Si       0.72573    0.59385    0.43475    1.000
    Si4359   Si       0.71468    0.64944    0.49148    1.000
    Si4360   Si       0.71161    0.72727    0.49520    1.000
    N4361    N        0.71403    0.73379    0.39411    1.000
    N4362    N        0.69479    0.68905    0.48658    1.000
    N4363    N        0.72353    0.57705    0.56509    1.000
    N4364    N        0.70943    0.53044    0.51750    1.000
    Si4365   Si       0.73690    0.53664    0.55068    1.000
    N4366    N        0.72795    0.51802    0.59034    1.000
    Si4367   Si       0.71475    0.55654    0.60426    1.000
    Si4368   Si       0.74924    0.61030    0.54953    1.000
    N4369    N        0.71025    0.63307    0.53317    1.000
    Si4370   Si       0.72252    0.66309    0.56410    1.000
    N4371    N        0.72509    0.73652    0.60126    1.000
    Si4372   Si       0.73863    0.73453    0.56128    1.000
    N4373    N        0.70809    0.74535    0.53364    1.000
    N4374    N        0.74455    0.69557    0.54601    1.000
    N4375    N        0.70723    0.58994    0.70834    1.000
    N4376    N        0.73320    0.57273    0.64031    1.000
    N4377    N        0.73646    0.52906    0.70705    1.000
    Si4378   Si       0.71208    0.60366    0.66646    1.000
    Si4379   Si       0.69961    0.54657    0.71608    1.000
    N4380    N        0.73691    0.68717    0.70715    1.000
    N4381    N        0.70392    0.69741    0.65385    1.000
    Si4382   Si       0.74489    0.68375    0.66483    1.000
    N4383    N        0.73461    0.63862    0.65630    1.000
    N4384    N        0.75060    0.63785    0.58316    1.000
    Si4385   Si       0.69144    0.71289    0.61622    1.000
    Si4386   Si       0.69400    0.68947    0.69790    1.000
    Si4387   Si       0.72601    0.58094    0.82617    1.000
    N4388    N        0.71637    0.53900    0.82803    1.000
    N4389    N        0.74019    0.59161    0.78747    1.000
    Si4390   Si       0.70266    0.51773    0.79311    1.000
    Si4391   Si       0.72194    0.52300    0.86776    1.000
    Si4392   Si       0.73416    0.63435    0.78223    1.000
    Si4393   Si       0.73308    0.67210    0.85544    1.000
    N4394    N        0.72799    0.70681    0.77695    1.000
    Si4395   Si       0.71363    0.72647    0.81304    1.000
    N4396    N        0.74391    0.71250    0.84150    1.000
    N4397    N        0.74642    0.64614    0.82460    1.000
    Si4398   Si       0.70972    0.71194    0.95333    1.000
    Si4399   Si       0.73044    0.57326    0.96054    1.000
    N4400    N        0.73734    0.52955    0.95365    1.000
    N4401    N        0.70204    0.68808    0.98835    1.000
    N4402    N        0.74873    0.70086    0.94193    1.000
    N4403    N        0.71160    0.64322    0.93344    1.000
    N4404    N        0.71747    0.75161    0.96800    1.000
    N4405    N        0.71614    0.78868    0.02744    1.000
    Si4406   Si       0.73982    0.84903    0.07771    1.000
    N4407    N        0.70974    0.87688    0.06596    1.000
    Si4408   Si       0.74299    0.77301    0.11441    1.000
    N4409    N        0.74107    0.80636    0.08697    1.000
    N4410    N        0.74892    0.86277    0.11907    1.000
    Si4411   Si       0.69824    0.87608    0.20966    1.000
    Si4412   Si       0.71663    0.91990    0.05790    1.000
    N4413    N        0.71656    0.93827    0.01994    1.000
    N4414    N        0.70511    0.99752    0.14568    1.000
    N4415    N        0.74712    0.82869    0.18089    1.000
    Si4416   Si       0.70663    0.81447    0.17494    1.000
    N4417    N        0.71992    0.77468    0.19473    1.000
    Si4418   Si       0.72492    0.92354    0.18265    1.000
    N4419    N        0.74891    0.95709    0.19412    1.000
    Si4420   Si       0.72400    0.99450    0.18628    1.000
    N4421    N        0.71545    0.92155    0.13963    1.000
    N4422    N        0.74000    0.88895    0.20378    1.000
    Si4423   Si       0.71834    0.85516    0.27726    1.000
    Si4424   Si       0.71574    0.77546    0.28984    1.000
    N4425    N        0.70332    0.81695    0.29383    1.000
    N4426    N        0.74963    0.84085    0.25117    1.000
    N4427    N        0.69627    0.94818    0.32218    1.000
    N4428    N        0.74020    0.88788    0.29782    1.000
    Si4429   Si       0.72158    0.96883    0.35042    1.000
    Si4430   Si       0.73049    0.93114    0.29970    1.000
    N4431    N        0.73434    0.95687    0.26208    1.000
    Si4432   Si       0.69485    0.98009    0.25844    1.000
    Si4433   Si       0.71574    0.76242    0.42646    1.000
    Si4434   Si       0.70663    0.83444    0.42951    1.000
    N4435    N        0.74901    0.84513    0.42809    1.000
    N4436    N        0.69661    0.82335    0.47073    1.000
    N4437    N        0.73258    0.96055    0.39199    1.000
    N4438    N        0.73215    0.97009    0.46068    1.000
    N4439    N        0.72324    0.90153    0.46137    1.000
    Si4440   Si       0.70434    0.97189    0.42505    1.000
    Si4441   Si       0.71762    0.93700    0.48515    1.000
    N4442    N        0.74434    0.76002    0.26149    1.000
    Si4443   Si       0.71709    0.84159    0.55876    1.000
    N4444    N        0.72692    0.86497    0.52280    1.000
    N4445    N        0.73219    0.80152    0.55350    1.000
    N4446    N        0.70126    0.85199    0.59729    1.000
    N4447    N        0.72709    0.91841    0.58765    1.000
    Si4448   Si       0.70456    0.93204    0.55320    1.000
    N4449    N        0.74098    0.93177    0.52266    1.000
    N4450    N        0.73794    0.79847    0.63247    1.000
    Si4451   Si       0.72186    0.82961    0.70831    1.000
    Si4452   Si       0.70673    0.82768    0.63519    1.000
    N4453    N        0.71155    0.85199    0.67284    1.000
    N4454    N        0.70055    0.79114    0.70472    1.000
    N4455    N        0.69816    0.85534    0.73677    1.000
    Si4456   Si       0.70589    0.75581    0.73102    1.000
    N4457    N        0.74977    0.75636    0.73465    1.000
    Si4458   Si       0.71064    0.89516    0.69096    1.000
    N4459    N        0.74202    0.89679    0.72267    1.000
    Si4460   Si       0.74506    0.98910    0.64286    1.000
    N4461    N        0.72714    0.91628    0.65787    1.000
    N4462    N        0.71552    0.99290    0.72677    1.000
    N4463    N        0.70754    0.97584    0.62747    1.000
    Si4464   Si       0.70712    0.93271    0.62349    1.000
    Si4465   Si       0.71004    0.85511    0.82652    1.000
    Si4466   Si       0.70639    0.79367    0.79428    1.000
    N4467    N        0.73827    0.86636    0.79265    1.000
    N4468    N        0.70833    0.76722    0.82901    1.000
    N4469    N        0.70921    0.82638    0.85939    1.000
    N4470    N        0.74724    0.80201    0.78480    1.000
    N4471    N        0.73897    0.87870    0.85645    1.000
    Si4472   Si       0.69709    0.78625    0.86690    1.000
    Si4473   Si       0.71899    0.88608    0.75939    1.000
    Si4474   Si       0.71528    0.96368    0.76017    1.000
    Si4475   Si       0.73085    0.97765    0.82600    1.000
    N4476    N        0.70774    0.94190    0.83713    1.000
    N4477    N        0.74934    0.97424    0.78540    1.000
    N4478    N        0.69974    0.92284    0.76815    1.000
    Si4479   Si       0.71427    0.91385    0.86907    1.000
    N4480    N        0.72501    0.77628    0.90031    1.000
    Si4481   Si       0.73639    0.84521    0.88651    1.000
    N4482    N        0.70559    0.82037    0.95317    1.000
    N4483    N        0.73900    0.87139    0.92361    1.000
    Si4484   Si       0.73875    0.84750    0.95960    1.000
    Si4485   Si       0.70323    0.77938    0.93836    1.000
    N4486    N        0.74419    0.88186    0.98856    1.000
    N4487    N        0.71632    0.98925    0.90563    1.000
    Si4488   Si       0.74186    0.92620    0.98654    1.000
    Si4489   Si       0.70128    0.89577    0.93592    1.000
    N4490    N        0.74743    0.93096    0.89364    1.000
    N4491    N        0.71518    0.93247    0.95383    1.000
    N4492    N        0.77502    0.06012    0.06198    1.000
    Si4493   Si       0.78829    0.08615    0.03065    1.000
    Si4494   Si       0.79277    0.05537    0.10171    1.000
    N4495    N        0.79639    0.12468    0.04479    1.000
    N4496    N        0.78045    0.22617    0.09205    1.000
    N4497    N        0.79043    0.16084    0.10437    1.000
    Si4498   Si       0.77809    0.16090    0.02807    1.000
    Si4499   Si       0.80641    0.22726    0.05478    1.000
    N4500    N        0.80300    0.19584    0.02522    1.000
    Si4501   Si       0.75727    0.18683    0.09078    1.000
    N4502    N        0.75434    0.17070    0.16343    1.000
    N4503    N        0.75417    0.05083    0.12240    1.000
    N4504    N        0.75990    0.01899    0.18092    1.000
    Si4505   Si       0.77313    0.09677    0.21029    1.000
    N4506    N        0.79108    0.08188    0.17277    1.000
    N4507    N        0.78605    0.06750    0.23947    1.000
    Si4508   Si       0.75511    0.05998    0.16470    1.000
    Si4509   Si       0.79957    0.00867    0.19833    1.000
    Si4510   Si       0.80133    0.24586    0.23601    1.000
    N4511    N        0.78166    0.13772    0.21614    1.000
    Si4512   Si       0.75865    0.17426    0.20769    1.000
    Si4513   Si       0.79470    0.16506    0.14745    1.000
    N4514    N        0.77302    0.21440    0.22305    1.000
    N4515    N        0.77750    0.02753    0.30031    1.000
    Si4516   Si       0.77489    0.06651    0.28020    1.000
    N4517    N        0.79183    0.09820    0.30140    1.000
    Si4518   Si       0.75963    0.02951    0.33947    1.000
    N4519    N        0.76475    0.06980    0.35472    1.000
    Si4520   Si       0.75333    0.10249    0.32877    1.000
    Si4521   Si       0.76655    0.24305    0.32418    1.000
    N4522    N        0.77292    0.14262    0.33889    1.000
    N4523    N        0.77356    0.20850    0.35137    1.000
    Si4524   Si       0.75676    0.18133    0.32182    1.000
    Si4525   Si       0.80972    0.20633    0.37315    1.000
    N4526    N        0.81011    0.16610    0.28724    1.000
    Si4527   Si       0.78611    0.13052    0.45116    1.000
    N4528    N        0.77977    0.11621    0.41046    1.000
    N4529    N        0.78522    0.09327    0.47526    1.000
    N4530    N        0.79879    0.05241    0.41740    1.000
    N4531    N        0.76597    0.03016    0.47897    1.000
    Si4532   Si       0.79869    0.05430    0.46051    1.000
    Si4533   Si       0.76537    0.07742    0.39971    1.000
    Si4534   Si       0.80675    0.01374    0.40039    1.000
    N4535    N        0.75312    0.15822    0.46051    1.000
    N4536    N        0.80411    0.17502    0.40257    1.000
    Si4537   Si       0.77507    0.15068    0.38409    1.000
    Si4538   Si       0.81096    0.13385    0.31676    1.000
    Si4539   Si       0.78043    0.25733    0.41219    1.000
    Si4540   Si       0.78312    0.10186    0.51707    1.000
    N4541    N        0.79018    0.06475    0.53738    1.000
    Si4542   Si       0.75737    0.03855    0.52149    1.000
    N4543    N        0.77051    0.01213    0.61430    1.000
    N4544    N        0.77192    0.20447    0.67745    1.000
    Si4545   Si       0.79046    0.20713    0.59470    1.000
    N4546    N        0.76106    0.17531    0.58336    1.000
    N4547    N        0.75565    0.23397    0.55227    1.000
    N4548    N        0.77345    0.23788    0.61954    1.000
    N4549    N        0.77578    0.14283    0.64838    1.000
    Si4550   Si       0.79092    0.25866    0.54922    1.000
    Si4551   Si       0.79190    0.11079    0.67074    1.000
    N4552    N        0.76950    0.07491    0.65582    1.000
    Si4553   Si       0.79302    0.04470    0.63510    1.000
    N4554    N        0.78116    0.10885    0.71234    1.000
    Si4555   Si       0.79951    0.17741    0.65844    1.000
    Si4556   Si       0.77481    0.24741    0.66204    1.000
    N4557    N        0.81125    0.13088    0.53095    1.000
    N4558    N        0.79253    0.05660    0.77014    1.000
    N4559    N        0.76320    0.06859    0.83583    1.000
    Si4560   Si       0.80374    0.06286    0.85073    1.000
    Si4561   Si       0.80231    0.09674    0.74912    1.000
    N4562    N        0.76172    0.15178    0.98866    1.000
    N4563    N        0.80890    0.02479    0.87040    1.000
    N4564    N        0.76275    0.21378    0.74983    1.000
    Si4565   Si       0.80238    0.22222    0.76637    1.000
    N4566    N        0.77412    0.15912    0.82132    1.000
    Si4567   Si       0.76047    0.19613    0.83937    1.000
    N4568    N        0.75857    0.16981    0.92672    1.000
    Si4569   Si       0.80078    0.03929    0.97634    1.000
    N4570    N        0.80419    0.12056    0.93984    1.000
    N4571    N        0.80165    0.05004    0.93488    1.000
    Si4572   Si       0.79000    0.08867    0.91563    1.000
    N4573    N        0.76387    0.02602    0.99394    1.000
    Si4574   Si       0.75436    0.20517    0.90139    1.000
    Si4575   Si       0.78734    0.15795    0.95404    1.000
    N4576    N        0.78741    0.20839    0.87166    1.000
    Si4577   Si       0.75440    0.06954    0.79157    1.000
    N4578    N        0.76873    0.29901    0.08502    1.000
    N4579    N        0.80082    0.33505    0.02879    1.000
    Si4580   Si       0.80349    0.30069    0.11042    1.000
    Si4581   Si       0.76149    0.32207    0.04683    1.000
    N4582    N        0.81274    0.26342    0.03139    1.000
    N4583    N        0.78916    0.39046    0.08258    1.000
    N4584    N        0.79052    0.47279    0.05746    1.000
    Si4585   Si       0.80143    0.50484    0.02964    1.000
    N4586    N        0.80229    0.44366    0.11709    1.000
    Si4587   Si       0.80289    0.39840    0.12225    1.000
    N4588    N        0.78650    0.30649    0.18416    1.000
    Si4589   Si       0.75880    0.30314    0.21704    1.000
    Si4590   Si       0.79788    0.34712    0.16849    1.000
    Si4591   Si       0.78492    0.37244    0.23965    1.000
    N4592    N        0.75591    0.34065    0.23715    1.000
    N4593    N        0.76072    0.48175    0.22789    1.000
    N4594    N        0.80628    0.48378    0.16373    1.000
    N4595    N        0.76098    0.50598    0.12529    1.000
    N4596    N        0.77820    0.38561    0.15649    1.000
    N4597    N        0.76213    0.40666    0.22500    1.000
    Si4598   Si       0.80114    0.47773    0.20742    1.000
    Si4599   Si       0.77205    0.46574    0.13953    1.000
    Si4600   Si       0.75543    0.40699    0.18364    1.000
    N4601    N        0.81060    0.33790    0.12893    1.000
    Si4602   Si       0.78344    0.36736    0.31173    1.000
    Si4603   Si       0.80072    0.30344    0.35343    1.000
    N4604    N        0.79833    0.26946    0.32472    1.000
    N4605    N        0.79837    0.34604    0.34631    1.000
    N4606    N        0.80596    0.36185    0.27578    1.000
    N4607    N        0.77173    0.27447    0.24747    1.000
    Si4608   Si       0.80656    0.43124    0.34745    1.000
    N4609    N        0.78580    0.46823    0.33973    1.000
    N4610    N        0.78122    0.41064    0.31734    1.000
    Si4611   Si       0.75678    0.49622    0.26956    1.000
    Si4612   Si       0.75306    0.44521    0.32385    1.000
    Si4613   Si       0.81200    0.28685    0.47539    1.000
    Si4614   Si       0.80890    0.50444    0.32586    1.000
    Si4615   Si       0.75512    0.33000    0.40734    1.000
    N4616    N        0.77627    0.29683    0.38855    1.000
    N4617    N        0.79977    0.32933    0.48089    1.000
    N4618    N        0.77690    0.27109    0.45320    1.000
    N4619    N        0.79021    0.35242    0.41903    1.000
    Si4620   Si       0.80746    0.36488    0.45837    1.000
    Si4621   Si       0.80747    0.36915    0.38107    1.000
    N4622    N        0.76436    0.50889    0.48104    1.000
    N4623    N        0.78492    0.40047    0.47020    1.000
    Si4624   Si       0.80210    0.43770    0.48412    1.000
    N4625    N        0.80034    0.46104    0.44794    1.000
    Si4626   Si       0.78179    0.49872    0.44091    1.000
    N4627    N        0.79022    0.40846    0.38125    1.000
    N4628    N        0.78114    0.29185    0.57677    1.000
    N4629    N        0.76796    0.34783    0.54052    1.000
    Si4630   Si       0.79618    0.33106    0.56798    1.000
    Si4631   Si       0.75913    0.33373    0.50211    1.000
    N4632    N        0.79741    0.34776    0.61239    1.000
    Si4633   Si       0.77845    0.43715    0.55967    1.000
    N4634    N        0.78649    0.45591    0.51971    1.000
    Si4635   Si       0.79088    0.50024    0.51418    1.000
    N4636    N        0.76731    0.46166    0.59454    1.000
    Si4637   Si       0.80086    0.39268    0.61888    1.000
    N4638    N        0.80710    0.41159    0.58000    1.000
    N4639    N        0.78312    0.32001    0.72159    1.000
    Si4640   Si       0.75560    0.33460    0.62930    1.000
    Si4641   Si       0.78269    0.36088    0.74193    1.000
    N4642    N        0.77254    0.39043    0.71144    1.000
    Si4643   Si       0.78620    0.42818    0.72563    1.000
    N4644    N        0.76186    0.40798    0.63690    1.000
    Si4645   Si       0.75682    0.49761    0.61627    1.000
    Si4646   Si       0.75101    0.29226    0.72761    1.000
    N4647    N        0.77482    0.35144    0.78344    1.000
    Si4648   Si       0.78250    0.30130    0.85770    1.000
    N4649    N        0.80018    0.34128    0.85585    1.000
    N4650    N        0.79446    0.26184    0.78437    1.000
    Si4651   Si       0.75447    0.26909    0.79874    1.000
    N4652    N        0.77809    0.46545    0.90299    1.000
    Si4653   Si       0.79433    0.42655    0.88900    1.000
    N4654    N        0.80395    0.47755    0.80397    1.000
    Si4655   Si       0.78760    0.43590    0.80544    1.000
    N4656    N        0.79670    0.41824    0.76763    1.000
    N4657    N        0.80331    0.42307    0.84559    1.000
    Si4658   Si       0.78310    0.50682    0.78162    1.000
    N4659    N        0.77428    0.29563    0.89915    1.000
    N4660    N        0.77218    0.35069    0.96354    1.000
    Si4661   Si       0.80574    0.33279    0.98498    1.000
    N4662    N        0.80791    0.29469    0.96435    1.000
    N4663    N        0.78557    0.41982    0.97027    1.000
    Si4664   Si       0.75936    0.37337    0.88128    1.000
    Si4665   Si       0.79608    0.38459    0.94960    1.000
    N4666    N        0.79475    0.38530    0.90576    1.000
    N4667    N        0.75313    0.30256    0.82621    1.000
    Si4668   Si       0.79132    0.59608    0.09175    1.000
    Si4669   Si       0.77470    0.57159    0.01720    1.000
    N4670    N        0.76781    0.58635    0.05775    1.000
    N4671    N        0.76812    0.52928    0.01551    1.000
    N4672    N        0.77840    0.75465    0.09172    1.000
    N4673    N        0.76046    0.66106    0.02717    1.000
    N4674    N        0.79642    0.63753    0.08727    1.000
    Si4675   Si       0.77163    0.72068    0.06617    1.000
    Si4676   Si       0.76043    0.65127    0.06993    1.000
    N4677    N        0.76276    0.67644    0.23334    1.000
    N4678    N        0.78110    0.74666    0.20870    1.000
    N4679    N        0.76512    0.58803    0.12862    1.000
    Si4680   Si       0.79165    0.59208    0.16309    1.000
    N4681    N        0.76983    0.61342    0.19323    1.000
    Si4682   Si       0.80006    0.52042    0.13948    1.000
    N4683    N        0.80880    0.55214    0.16746    1.000
    N4684    N        0.80740    0.67771    0.18299    1.000
    Si4685   Si       0.81181    0.71999    0.19194    1.000
    Si4686   Si       0.76779    0.65922    0.19103    1.000
    Si4687   Si       0.78944    0.66466    0.99560    1.000
    N4688    N        0.79927    0.56996    0.26622    1.000
    Si4689   Si       0.80177    0.57806    0.34945    1.000
    N4690    N        0.76393    0.58142    0.32646    1.000
    Si4691   Si       0.75765    0.57174    0.28409    1.000
    N4692    N        0.80186    0.66065    0.41375    1.000
    N4693    N        0.76141    0.66073    0.30095    1.000
    Si4694   Si       0.78741    0.67159    0.26860    1.000
    N4695    N        0.79370    0.69524    0.34710    1.000
    Si4696   Si       0.79803    0.72609    0.31799    1.000
    Si4697   Si       0.75977    0.67066    0.34194    1.000
    N4698    N        0.80422    0.71378    0.27619    1.000
    N4699    N        0.76472    0.75319    0.33163    1.000
    Si4700   Si       0.78420    0.74982    0.25159    1.000
    N4701    N        0.76063    0.63466    0.36572    1.000
    N4702    N        0.76604    0.60735    0.44211    1.000
    Si4703   Si       0.78127    0.62380    0.40249    1.000
    Si4704   Si       0.78020    0.62031    0.48166    1.000
    N4705    N        0.81235    0.59690    0.38845    1.000
    N4706    N        0.75728    0.65841    0.48812    1.000
    N4707    N        0.75360    0.72792    0.48887    1.000
    N4708    N        0.79464    0.50765    0.28650    1.000
    N4709    N        0.77878    0.52597    0.54761    1.000
    N4710    N        0.78089    0.60696    0.52422    1.000
    Si4711   Si       0.80752    0.53738    0.58109    1.000
    N4712    N        0.78529    0.53116    0.61644    1.000
    Si4713   Si       0.77200    0.69335    0.51126    1.000
    N4714    N        0.77754    0.75066    0.55591    1.000
    Si4715   Si       0.77861    0.74225    0.70560    1.000
    Si4716   Si       0.76619    0.63771    0.62453    1.000
    N4717    N        0.79320    0.60529    0.63522    1.000
    Si4718   Si       0.77638    0.54261    0.71788    1.000
    Si4719   Si       0.77546    0.56644    0.64343    1.000
    N4720    N        0.79248    0.55108    0.67989    1.000
    N4721    N        0.79596    0.51101    0.74027    1.000
    N4722    N        0.79228    0.57406    0.74283    1.000
    N4723    N        0.79633    0.75864    0.62032    1.000
    N4724    N        0.76138    0.73212    0.66482    1.000
    N4725    N        0.78027    0.67627    0.63647    1.000
    Si4726   Si       0.80199    0.71229    0.62706    1.000
    N4727    N        0.79267    0.71210    0.73433    1.000
    Si4728   Si       0.78135    0.57702    0.78365    1.000
    N4729    N        0.78567    0.54100    0.80842    1.000
    Si4730   Si       0.78825    0.55384    0.85100    1.000
    N4731    N        0.76078    0.58965    0.85069    1.000
    N4732    N        0.80429    0.60968    0.80310    1.000
    Si4733   Si       0.78023    0.62608    0.83855    1.000
    N4734    N        0.76717    0.65334    0.75944    1.000
    Si4735   Si       0.78294    0.72967    0.84038    1.000
    N4736    N        0.78815    0.74031    0.79839    1.000
    Si4737   Si       0.80621    0.64128    0.77291    1.000
    N4738    N        0.80762    0.52435    0.92651    1.000
    N4739    N        0.76272    0.53223    0.88072    1.000
    Si4740   Si       0.76694    0.53631    0.92265    1.000
    N4741    N        0.76463    0.58032    0.93474    1.000
    Si4742   Si       0.79625    0.60274    0.95356    1.000
    N4743    N        0.80798    0.58544    0.99196    1.000
    Si4744   Si       0.80432    0.67492    0.88303    1.000
    Si4745   Si       0.75199    0.65967    0.92889    1.000
    N4746    N        0.79921    0.70881    0.98533    1.000
    Si4747   Si       0.78664    0.72233    0.94657    1.000
    N4748    N        0.78256    0.64422    0.95782    1.000
    N4749    N        0.81002    0.70118    0.91777    1.000
    N4750    N        0.76226    0.66279    0.88706    1.000
    N4751    N        0.81220    0.69763    0.84694    1.000
    Si4752   Si       0.75462    0.69146    0.74586    1.000
    N4753    N        0.76739    0.84391    0.04504    1.000
    N4754    N        0.77568    0.77830    0.01459    1.000
    Si4755   Si       0.77869    0.86016    0.00629    1.000
    Si4756   Si       0.75439    0.80111    0.04509    1.000
    Si4757   Si       0.77937    0.95749    0.08397    1.000
    N4758    N        0.78377    0.98123    0.04892    1.000
    Si4759   Si       0.78471    0.99010    0.00825    1.000
    N4760    N        0.76320    0.97834    0.11986    1.000
    N4761    N        0.75381    0.92274    0.08145    1.000
    Si4762   Si       0.80445    0.76425    0.12650    1.000
    N4763    N        0.78918    0.81075    0.22134    1.000
    Si4764   Si       0.76487    0.78615    0.19390    1.000
    Si4765   Si       0.76771    0.83026    0.14182    1.000
    N4766    N        0.77136    0.78573    0.14684    1.000
    Si4767   Si       0.76620    0.85322    0.21134    1.000
    N4768    N        0.80343    0.87534    0.20566    1.000
    N4769    N        0.80631    0.85175    0.14387    1.000
    Si4770   Si       0.76918    0.95493    0.23463    1.000
    Si4771   Si       0.81032    0.88975    0.16679    1.000
    N4772    N        0.80708    0.93069    0.24157    1.000
    N4773    N        0.79130    0.99395    0.23791    1.000
    N4774    N        0.78024    0.91645    0.15057    1.000
    Si4775   Si       0.77239    0.95826    0.15625    1.000
    Si4776   Si       0.75158    0.90505    0.12116    1.000
    Si4777   Si       0.78967    0.78777    0.33699    1.000
    N4778    N        0.77125    0.81899    0.31085    1.000
    Si4779   Si       0.77711    0.86337    0.30861    1.000
    Si4780   Si       0.78641    0.81815    0.26589    1.000
    N4781    N        0.80647    0.77904    0.27485    1.000
    N4782    N        0.80623    0.85876    0.27516    1.000
    N4783    N        0.79423    0.87722    0.34626    1.000
    Si4784   Si       0.81157    0.83993    0.36445    1.000
    Si4785   Si       0.79452    0.96881    0.33972    1.000
    N4786    N        0.75780    0.95235    0.32742    1.000
    N4787    N        0.78540    0.00446    0.36342    1.000
    Si4788   Si       0.80959    0.00753    0.27492    1.000
    N4789    N        0.78620    0.80730    0.37905    1.000
    Si4790   Si       0.77411    0.81172    0.42178    1.000
    Si4791   Si       0.77377    0.76100    0.47360    1.000
    Si4792   Si       0.80318    0.89953    0.38357    1.000
    N4793    N        0.75380    0.77769    0.43882    1.000
    N4794    N        0.79650    0.96798    0.49601    1.000
    N4795    N        0.77581    0.90770    0.41546    1.000
    Si4796   Si       0.75979    0.88205    0.44711    1.000
    N4797    N        0.78697    0.98459    0.42757    1.000
    Si4798   Si       0.77156    0.95150    0.40475    1.000
    N4799    N        0.78394    0.88250    0.48471    1.000
    N4800    N        0.80797    0.94297    0.37371    1.000
    Si4801   Si       0.77076    0.98961    0.46762    1.000
    Si4802   Si       0.77462    0.79173    0.54486    1.000
    N4803    N        0.80257    0.81543    0.57275    1.000
    N4804    N        0.78563    0.79205    0.50303    1.000
    Si4805   Si       0.79908    0.99016    0.68909    1.000
    N4806    N        0.78007    0.88318    0.55832    1.000
    N4807    N        0.78630    0.95198    0.57060    1.000
    Si4808   Si       0.77070    0.91390    0.58641    1.000
    Si4809   Si       0.77123    0.96275    0.53041    1.000
    Si4810   Si       0.78556    0.99478    0.57932    1.000
    N4811    N        0.75932    0.00217    0.54396    1.000
    Si4812   Si       0.75862    0.89139    0.51933    1.000
    N4813    N        0.76653    0.83238    0.71874    1.000
    Si4814   Si       0.80285    0.80952    0.71990    1.000
    Si4815   Si       0.77789    0.87407    0.72296    1.000
    N4816    N        0.80295    0.77736    0.69355    1.000
    N4817    N        0.78908    0.90743    0.62364    1.000
    N4818    N        0.77299    0.96409    0.66409    1.000
    N4819    N        0.79387    0.88893    0.68584    1.000
    Si4820   Si       0.77173    0.91894    0.66170    1.000
    N4821    N        0.78337    0.99762    0.72976    1.000
    Si4822   Si       0.75173    0.75805    0.63019    1.000
    N4823    N        0.79290    0.83734    0.82546    1.000
    Si4824   Si       0.77249    0.84021    0.78608    1.000
    N4825    N        0.79565    0.86911    0.76240    1.000
    N4826    N        0.78638    0.76601    0.86476    1.000
    Si4827   Si       0.77180    0.76791    0.76949    1.000
    Si4828   Si       0.77887    0.87546    0.84088    1.000
    N4829    N        0.80790    0.79272    0.75947    1.000
    Si4830   Si       0.78970    0.97748    0.76700    1.000
    N4831    N        0.76468    0.97989    0.85406    1.000
    Si4832   Si       0.80669    0.98919    0.84507    1.000
    N4833    N        0.80328    0.90725    0.82188    1.000
    N4834    N        0.81058    0.99705    0.80222    1.000
    N4835    N        0.80989    0.94037    0.76170    1.000
    Si4836   Si       0.76791    0.78042    0.90151    1.000
    Si4837   Si       0.79420    0.79075    0.97722    1.000
    N4838    N        0.77522    0.82560    0.89741    1.000
    N4839    N        0.77376    0.82912    0.97615    1.000
    N4840    N        0.78443    0.76633    0.94035    1.000
    N4841    N        0.80059    0.88516    0.87965    1.000
    Si4842   Si       0.80686    0.95594    0.95641    1.000
    Si4843   Si       0.75520    0.97238    0.89619    1.000
    N4844    N        0.79554    0.91528    0.94122    1.000
    N4845    N        0.77520    0.95283    0.98698    1.000
    N4846    N        0.78861    0.97984    0.92311    1.000
    Si4847   Si       0.77214    0.89949    0.90950    1.000
    Si4848   Si       0.80907    0.79792    0.84307    1.000
    Si4849   Si       0.81510    0.84435    0.89555    1.000
    N4850    N        0.82639    0.02769    0.10416    1.000
    Si4851   Si       0.85992    0.05862    0.01092    1.000
    Si4852   Si       0.86274    0.04021    0.08549    1.000
    N4853    N        0.86211    0.03046    0.04316    1.000
    N4854    N        0.81787    0.06595    0.00598    1.000
    N4855    N        0.81006    0.09483    0.10859    1.000
    Si4856   Si       0.81397    0.13149    0.08430    1.000
    N4857    N        0.85508    0.14266    0.07142    1.000
    N4858    N        0.83933    0.21623    0.08241    1.000
    Si4859   Si       0.86464    0.18404    0.06539    1.000
    Si4860   Si       0.83861    0.19636    0.99584    1.000
    N4861    N        0.84158    0.10565    0.22590    1.000
    N4862    N        0.83449    0.03422    0.20167    1.000
    Si4863   Si       0.82607    0.09662    0.15039    1.000
    Si4864   Si       0.82938    0.06296    0.23501    1.000
    N4865    N        0.86455    0.07439    0.15146    1.000
    Si4866   Si       0.84205    0.21156    0.19037    1.000
    N4867    N        0.81851    0.20316    0.15400    1.000
    N4868    N        0.82920    0.25130    0.20409    1.000
    Si4869   Si       0.82410    0.14270    0.20879    1.000
    N4870    N        0.82257    0.13794    0.16577    1.000
    N4871    N        0.83978    0.18203    0.22307    1.000
    Si4872   Si       0.81688    0.22819    0.11825    1.000
    N4873    N        0.84031    0.03634    0.26788    1.000
    N4874    N        0.84768    0.12314    0.33506    1.000
    N4875    N        0.86491    0.14307    0.40036    1.000
    N4876    N        0.83903    0.18751    0.34952    1.000
    Si4877   Si       0.83603    0.19261    0.26618    1.000
    N4878    N        0.82452    0.23411    0.27006    1.000
    N4879    N        0.86815    0.25072    0.32652    1.000
    N4880    N        0.83436    0.03575    0.47108    1.000
    N4881    N        0.86348    0.09153    0.44112    1.000
    N4882    N        0.82327    0.15095    0.46356    1.000
    Si4883   Si       0.84073    0.16689    0.42737    1.000
    Si4884   Si       0.85503    0.24342    0.41986    1.000
    N4885    N        0.81690    0.24094    0.39632    1.000
    Si4886   Si       0.87038    0.15424    0.35869    1.000
    N4887    N        0.86644    0.20290    0.43481    1.000
    Si4888   Si       0.87018    0.20843    0.32570    1.000
    Si4889   Si       0.87003    0.05350    0.45878    1.000
    N4890    N        0.85499    0.07452    0.55180    1.000
    Si4891   Si       0.84855    0.11612    0.55272    1.000
    Si4892   Si       0.82037    0.05303    0.56655    1.000
    N4893    N        0.85222    0.12589    0.59397    1.000
    N4894    N        0.81676    0.06770    0.60735    1.000
    N4895    N        0.82605    0.00914    0.56871    1.000
    Si4896   Si       0.85893    0.14619    0.67574    1.000
    Si4897   Si       0.85527    0.16697    0.60656    1.000
    Si4898   Si       0.85413    0.21639    0.55080    1.000
    N4899    N        0.84034    0.19481    0.51784    1.000
    Si4900   Si       0.83699    0.15396    0.50501    1.000
    N4901    N        0.81693    0.23017    0.56794    1.000
    N4902    N        0.81827    0.18439    0.61900    1.000
    Si4903   Si       0.84861    0.09374    0.62135    1.000
    Si4904   Si       0.87098    0.05132    0.73188    1.000
    N4905    N        0.83557    0.11252    0.65960    1.000
    N4906    N        0.84367    0.08376    0.73294    1.000
    N4907    N        0.81794    0.02376    0.66755    1.000
    N4908    N        0.87091    0.13523    0.52034    1.000
    N4909    N        0.83316    0.18104    0.68495    1.000
    N4910    N        0.83352    0.23318    0.73790    1.000
    N4911    N        0.81634    0.25367    0.66942    1.000
    Si4912   Si       0.83926    0.22325    0.69515    1.000
    N4913    N        0.83597    0.06045    0.82315    1.000
    Si4914   Si       0.82593    0.03432    0.78852    1.000
    N4915    N        0.85949    0.02603    0.76520    1.000
    Si4916   Si       0.84436    0.12014    0.86764    1.000
    Si4917   Si       0.86055    0.12303    0.74506    1.000
    N4918    N        0.82201    0.13248    0.76545    1.000
    N4919    N        0.84102    0.14005    0.83171    1.000
    Si4920   Si       0.85762    0.20963    0.81357    1.000
    N4921    N        0.85559    0.21344    0.85647    1.000
    N4922    N        0.81964    0.19731    0.79528    1.000
    N4923    N        0.86315    0.25135    0.80034    1.000
    N4924    N        0.80956    0.09721    0.87831    1.000
    N4925    N        0.83130    0.16912    0.96456    1.000
    N4926    N        0.84855    0.23472    0.97600    1.000
    Si4927   Si       0.86393    0.23774    0.93478    1.000
    Si4928   Si       0.84334    0.13709    0.93677    1.000
    N4929    N        0.85126    0.15041    0.89677    1.000
    N4930    N        0.82775    0.25020    0.91238    1.000
    Si4931   Si       0.82291    0.23641    0.87105    1.000
    Si4932   Si       0.81255    0.15361    0.80246    1.000
    Si4933   Si       0.81067    0.01467    0.91224    1.000
    N4934    N        0.84172    0.30223    0.08636    1.000
    N4935    N        0.85218    0.36422    0.06701    1.000
    Si4936   Si       0.84940    0.34849    0.10861    1.000
    N4937    N        0.85743    0.29888    0.01019    1.000
    Si4938   Si       0.82933    0.30244    0.04509    1.000
    Si4939   Si       0.81372    0.37620    0.04951    1.000
    N4940    N        0.86740    0.44934    0.15423    1.000
    N4941    N        0.85549    0.45636    0.08491    1.000
    N4942    N        0.82048    0.41844    0.03371    1.000
    Si4943   Si       0.81467    0.44080    0.07296    1.000
    N4944    N        0.82011    0.48157    0.99734    1.000
    N4945    N        0.82404    0.44857    0.22390    1.000
    Si4946   Si       0.82451    0.28393    0.17711    1.000
    N4947    N        0.85363    0.31881    0.18411    1.000
    Si4948   Si       0.85501    0.35340    0.21095    1.000
    N4949    N        0.81212    0.36133    0.20730    1.000
    N4950    N        0.81597    0.26811    0.13619    1.000
    N4951    N        0.86730    0.39407    0.20132    1.000
    Si4952   Si       0.86142    0.42628    0.23151    1.000
    Si4953   Si       0.83917    0.46791    0.12677    1.000
    N4954    N        0.84524    0.39063    0.12817    1.000
    Si4955   Si       0.84715    0.34399    0.27804    1.000
    N4956    N        0.84221    0.30312    0.28435    1.000
    Si4957   Si       0.83562    0.26327    0.29984    1.000
    N4958    N        0.84242    0.30392    0.36081    1.000
    N4959    N        0.86060    0.36503    0.31512    1.000
    Si4960   Si       0.86393    0.34217    0.35194    1.000
    N4961    N        0.84869    0.43176    0.34081    1.000
    N4962    N        0.85115    0.49540    0.32391    1.000
    Si4963   Si       0.86260    0.47087    0.35722    1.000
    N4964    N        0.83601    0.48030    0.39099    1.000
    N4965    N        0.84500    0.43842    0.48931    1.000
    N4966    N        0.85012    0.36790    0.38463    1.000
    N4967    N        0.84288    0.27005    0.45095    1.000
    N4968    N        0.85022    0.37251    0.45972    1.000
    N4969    N        0.86551    0.42545    0.42324    1.000
    Si4970   Si       0.84120    0.45944    0.42964    1.000
    N4971    N        0.86578    0.49058    0.44991    1.000
    Si4972   Si       0.86446    0.40008    0.49090    1.000
    N4973    N        0.83712    0.32056    0.55720    1.000
    Si4974   Si       0.85239    0.28492    0.53412    1.000
    Si4975   Si       0.86402    0.34518    0.53427    1.000
    N4976    N        0.81423    0.27225    0.51553    1.000
    N4977    N        0.84767    0.38510    0.52999    1.000
    Si4978   Si       0.84798    0.41519    0.56239    1.000
    N4979    N        0.85425    0.45682    0.55630    1.000
    Si4980   Si       0.85935    0.47110    0.51568    1.000
    Si4981   Si       0.86692    0.47991    0.59041    1.000
    N4982    N        0.83220    0.50442    0.50344    1.000
    Si4983   Si       0.84941    0.28132    0.66551    1.000
    N4984    N        0.83701    0.32228    0.67164    1.000
    Si4985   Si       0.82643    0.32410    0.71435    1.000
    Si4986   Si       0.83809    0.34557    0.63254    1.000
    N4987    N        0.85387    0.30131    0.73977    1.000
    N4988    N        0.83123    0.36011    0.74152    1.000
    Si4989   Si       0.86804    0.26044    0.73744    1.000
    N4990    N        0.84184    0.50608    0.68265    1.000
    Si4991   Si       0.87113    0.41532    0.63575    1.000
    N4992    N        0.86085    0.45819    0.62937    1.000
    Si4993   Si       0.82994    0.49059    0.72117    1.000
    N4994    N        0.83562    0.38972    0.64321    1.000
    N4995    N        0.82315    0.44889    0.71767    1.000
    Si4996   Si       0.87430    0.48298    0.66364    1.000
    N4997    N        0.83708    0.31798    0.80309    1.000
    Si4998   Si       0.82839    0.27524    0.80700    1.000
    Si4999   Si       0.85761    0.33309    0.76773    1.000
    N5000    N        0.83615    0.38227    0.80544    1.000
    Si5001   Si       0.84223    0.40658    0.84218    1.000
    Si5002   Si       0.83881    0.48003    0.83130    1.000
    Si5003   Si       0.83497    0.39778    0.76447    1.000
    N5004    N        0.86425    0.44345    0.83566    1.000
    N5005    N        0.86326    0.49644    0.74962    1.000
    N5006    N        0.83297    0.50031    0.87031    1.000
    N5007    N        0.83879    0.32019    0.90920    1.000
    N5008    N        0.83011    0.36676    0.96673    1.000
    Si5009   Si       0.82465    0.35555    0.89030    1.000
    N5010    N        0.85524    0.38103    0.87436    1.000
    Si5011   Si       0.82962    0.26874    0.99276    1.000
    N5012    N        0.83148    0.43943    0.90561    1.000
    N5013    N        0.86024    0.48693    0.93503    1.000
    Si5014   Si       0.81807    0.48387    0.90845    1.000
    Si5015   Si       0.86731    0.43975    0.93077    1.000
    N5016    N        0.85728    0.43405    0.97407    1.000
    Si5017   Si       0.85745    0.49387    0.97712    1.000
    Si5018   Si       0.80880    0.35027    0.81520    1.000
    N5019    N        0.81227    0.27104    0.84807    1.000
    Si5020   Si       0.81186    0.28927    0.92099    1.000
    Si5021   Si       0.81712    0.43728    0.99593    1.000
    Si5022   Si       0.84490    0.53807    0.08145    1.000
    Si5023   Si       0.84397    0.56596    0.00868    1.000
    N5024    N        0.82774    0.57500    0.09861    1.000
    N5025    N        0.82965    0.53703    0.04096    1.000
    N5026    N        0.86458    0.59705    0.02961    1.000
    N5027    N        0.83189    0.50893    0.11087    1.000
    Si5028   Si       0.84320    0.73146    0.05743    1.000
    Si5029   Si       0.82731    0.66708    0.08555    1.000
    Si5030   Si       0.86624    0.64031    0.02426    1.000
    N5031    N        0.83255    0.65801    0.00513    1.000
    N5032    N        0.86405    0.65930    0.06303    1.000
    N5033    N        0.86673    0.73734    0.09570    1.000
    N5034    N        0.86576    0.71976    0.02285    1.000
    Si5035   Si       0.85529    0.59151    0.12611    1.000
    N5036    N        0.82461    0.61526    0.14807    1.000
    Si5037   Si       0.84173    0.53572    0.19253    1.000
    N5038    N        0.86117    0.57007    0.21245    1.000
    N5039    N        0.81644    0.51625    0.21960    1.000
    N5040    N        0.85179    0.67398    0.12339    1.000
    N5041    N        0.82277    0.73345    0.15023    1.000
    Si5042   Si       0.83907    0.65424    0.15920    1.000
    N5043    N        0.84536    0.72757    0.21784    1.000
    Si5044   Si       0.85931    0.71638    0.13337    1.000
    N5045    N        0.81078    0.70301    0.06359    1.000
    N5046    N        0.86000    0.53249    0.26558    1.000
    N5047    N        0.83223    0.59348    0.32358    1.000
    Si5048   Si       0.82488    0.59982    0.28226    1.000
    Si5049   Si       0.81780    0.53326    0.25908    1.000
    N5050    N        0.86918    0.60190    0.27205    1.000
    Si5051   Si       0.84801    0.71824    0.26021    1.000
    N5052    N        0.82031    0.64315    0.27471    1.000
    Si5053   Si       0.86524    0.64655    0.27538    1.000
    Si5054   Si       0.85136    0.74532    0.36674    1.000
    N5055    N        0.84986    0.65806    0.36934    1.000
    N5056    N        0.87295    0.74609    0.28138    1.000
    N5057    N        0.80952    0.53541    0.35634    1.000
    Si5058   Si       0.85450    0.61755    0.38234    1.000
    N5059    N        0.86207    0.56031    0.46423    1.000
    Si5060   Si       0.83206    0.52280    0.39639    1.000
    Si5061   Si       0.84175    0.52318    0.46613    1.000
    N5062    N        0.86379    0.62406    0.42264    1.000
    Si5063   Si       0.85684    0.59677    0.48609    1.000
    N5064    N        0.82458    0.62350    0.47715    1.000
    N5065    N        0.81249    0.52750    0.43371    1.000
    N5066    N        0.81363    0.75202    0.46174    1.000
    Si5067   Si       0.83166    0.64757    0.44218    1.000
    N5068    N        0.83188    0.72184    0.39892    1.000
    N5069    N        0.84586    0.68465    0.46268    1.000
    Si5070   Si       0.81833    0.68543    0.38126    1.000
    Si5071   Si       0.83901    0.72449    0.44180    1.000
    N5072    N        0.85078    0.52238    0.58275    1.000
    N5073    N        0.85156    0.58368    0.52627    1.000
    Si5074   Si       0.82144    0.60618    0.54260    1.000
    Si5075   Si       0.83072    0.59690    0.61537    1.000
    N5076    N        0.81648    0.57926    0.57852    1.000
    Si5077   Si       0.86904    0.55432    0.55389    1.000
    N5078    N        0.85898    0.63060    0.60483    1.000
    N5079    N        0.81836    0.69764    0.58893    1.000
    N5080    N        0.83963    0.64569    0.54309    1.000
    Si5081   Si       0.84511    0.66450    0.57978    1.000
    Si5082   Si       0.84277    0.67428    0.50619    1.000
    Si5083   Si       0.81439    0.72744    0.55692    1.000
    Si5084   Si       0.83564    0.54700    0.67568    1.000
    N5085    N        0.85464    0.56986    0.70718    1.000
    N5086    N        0.84885    0.56666    0.64059    1.000
    Si5087   Si       0.83351    0.58491    0.74086    1.000
    N5088    N        0.83263    0.62702    0.74114    1.000
    N5089    N        0.86602    0.62859    0.67398    1.000
    N5090    N        0.86577    0.68319    0.71470    1.000
    N5091    N        0.83163    0.72327    0.65856    1.000
    Si5092   Si       0.86546    0.64073    0.71623    1.000
    N5093    N        0.81232    0.70134    0.52070    1.000
    N5094    N        0.84197    0.76131    0.56143    1.000
    Si5095   Si       0.84806    0.59059    0.81661    1.000
    N5096    N        0.84995    0.56848    0.77741    1.000
    N5097    N        0.82752    0.56939    0.85520    1.000
    N5098    N        0.86148    0.51498    0.81522    1.000
    Si5099   Si       0.86463    0.53201    0.85734    1.000
    N5100    N        0.86649    0.63068    0.82532    1.000
    N5101    N        0.81322    0.63455    0.86872    1.000
    N5102    N        0.82544    0.67553    0.79033    1.000
    N5103    N        0.84828    0.73682    0.76370    1.000
    Si5104   Si       0.84673    0.67403    0.82745    1.000
    Si5105   Si       0.81435    0.71232    0.77379    1.000
    Si5106   Si       0.84071    0.69992    0.99404    1.000
    N5107    N        0.85602    0.53902    0.97586    1.000
    Si5108   Si       0.83458    0.60041    0.88463    1.000
    N5109    N        0.82784    0.58887    0.92704    1.000
    Si5110   Si       0.84509    0.54738    0.93282    1.000
    N5111    N        0.85512    0.74897    0.91365    1.000
    N5112    N        0.86501    0.68115    0.88993    1.000
    Si5113   Si       0.85276    0.70720    0.92045    1.000
    N5114    N        0.86679    0.69603    0.95870    1.000
    N5115    N        0.84558    0.77445    0.05103    1.000
    Si5116   Si       0.85716    0.87401    0.01659    1.000
    Si5117   Si       0.86247    0.79678    0.01721    1.000
    Si5118   Si       0.86412    0.78136    0.08960    1.000
    N5119    N        0.81661    0.87880    0.00000    1.000
    N5120    N        0.86666    0.86321    0.11324    1.000
    N5121    N        0.86763    0.83705    0.03637    1.000
    N5122    N        0.83646    0.79292    0.12090    1.000
    N5123    N        0.82254    0.95521    0.09529    1.000
    Si5124   Si       0.85628    0.94039    0.07013    1.000
    N5125    N        0.86710    0.90165    0.04975    1.000
    Si5126   Si       0.84324    0.83247    0.13381    1.000
    N5127    N        0.86656    0.84131    0.17144    1.000
    N5128    N        0.80936    0.97765    0.16566    1.000
    Si5129   Si       0.81869    0.88730    0.24383    1.000
    Si5130   Si       0.82597    0.98785    0.12309    1.000
    N5131    N        0.86389    0.97742    0.13785    1.000
    Si5132   Si       0.84681    0.95360    0.16930    1.000
    N5133    N        0.86342    0.96046    0.20876    1.000
    N5134    N        0.84798    0.91041    0.16246    1.000
    Si5135   Si       0.84215    0.77747    0.29752    1.000
    N5136    N        0.83459    0.82136    0.33173    1.000
    N5137    N        0.84975    0.00052    0.39201    1.000
    N5138    N        0.86549    0.92394    0.40477    1.000
    Si5139   Si       0.84753    0.95911    0.38648    1.000
    Si5140   Si       0.86181    0.97121    0.31285    1.000
    N5141    N        0.82001    0.97744    0.30680    1.000
    N5142    N        0.82527    0.86398    0.39779    1.000
    Si5143   Si       0.84337    0.84606    0.43154    1.000
    Si5144   Si       0.82374    0.79116    0.47705    1.000
    N5145    N        0.84990    0.88081    0.46077    1.000
    N5146    N        0.81374    0.81713    0.44389    1.000
    N5147    N        0.82575    0.75622    0.33392    1.000
    N5148    N        0.86446    0.78508    0.49494    1.000
    Si5149   Si       0.82640    0.88285    0.49642    1.000
    Si5150   Si       0.83852    0.95406    0.49874    1.000
    Si5151   Si       0.85078    0.93742    0.24325    1.000
    N5152    N        0.86055    0.89422    0.24575    1.000
    N5153    N        0.83934    0.85248    0.52149    1.000
    Si5154   Si       0.82335    0.78282    0.59504    1.000
    Si5155   Si       0.81641    0.85563    0.55944    1.000
    Si5156   Si       0.85754    0.00470    0.67163    1.000
    N5157    N        0.84055    0.88241    0.58512    1.000
    Si5158   Si       0.86437    0.98980    0.56264    1.000
    N5159    N        0.83646    0.91814    0.52225    1.000
    Si5160   Si       0.86188    0.91207    0.55863    1.000
    N5161    N        0.86791    0.97776    0.52233    1.000
    N5162    N        0.87022    0.94796    0.58222    1.000
    N5163    N        0.85747    0.90083    0.71093    1.000
    N5164    N        0.84938    0.79039    0.62989    1.000
    Si5165   Si       0.82242    0.76678    0.65543    1.000
    N5166    N        0.83714    0.83637    0.71265    1.000
    Si5167   Si       0.83298    0.87200    0.68926    1.000
    N5168    N        0.84386    0.86086    0.64915    1.000
    Si5169   Si       0.86797    0.82525    0.64379    1.000
    N5170    N        0.83742    0.97005    0.69449    1.000
    Si5171   Si       0.83157    0.89513    0.62463    1.000
    N5172    N        0.85493    0.92768    0.64193    1.000
    Si5173   Si       0.86160    0.93502    0.68523    1.000
    N5174    N        0.84154    0.78150    0.81889    1.000
    Si5175   Si       0.84567    0.77935    0.77688    1.000
    Si5176   Si       0.82810    0.89348    0.95970    1.000
    N5177    N        0.85961    0.88775    0.78313    1.000
    Si5178   Si       0.82721    0.91527    0.85853    1.000
    N5179    N        0.83202    0.95895    0.86594    1.000
    Si5180   Si       0.81678    0.90219    0.78200    1.000
    N5181    N        0.86798    0.89955    0.85401    1.000
    N5182    N        0.83526    0.81006    0.87640    1.000
    Si5183   Si       0.85674    0.83330    0.95827    1.000
    N5184    N        0.82958    0.85690    0.93306    1.000
    N5185    N        0.83719    0.80225    0.98225    1.000
    Si5186   Si       0.86556    0.78785    0.89950    1.000
    N5187    N        0.85244    0.00272    0.92051    1.000
    Si5188   Si       0.86633    0.98659    0.88245    1.000
    Si5189   Si       0.85906    0.00382    0.96458    1.000
    N5190    N        0.84421    0.93269    0.97607    1.000
    N5191    N        0.81936    0.99841    0.97939    1.000
    Si5192   Si       0.88355    0.11275    0.05663    1.000
    N5193    N        0.88199    0.07963    0.08601    1.000
    N5194    N        0.89774    0.01445    0.09093    1.000
    N5195    N        0.92258    0.13157    0.05641    1.000
    N5196    N        0.87702    0.09735    0.01626    1.000
    Si5197   Si       0.91811    0.22482    0.09676    1.000
    N5198    N        0.90147    0.18618    0.08989    1.000
    Si5199   Si       0.91373    0.18928    0.00384    1.000
    Si5200   Si       0.92320    0.15017    0.09494    1.000
    N5201    N        0.87276    0.18954    0.02227    1.000
    Si5202   Si       0.92516    0.04224    0.22102    1.000
    Si5203   Si       0.89873    0.08251    0.12576    1.000
    N5204    N        0.89190    0.07051    0.21434    1.000
    Si5205   Si       0.88580    0.11024    0.22658    1.000
    N5206    N        0.91169    0.12360    0.12911    1.000
    N5207    N        0.90088    0.01438    0.19131    1.000
    Si5208   Si       0.87280    0.04621    0.18449    1.000
    N5209    N        0.89519    0.13898    0.19651    1.000
    Si5210   Si       0.91190    0.24127    0.16583    1.000
    Si5211   Si       0.90389    0.18001    0.19679    1.000
    N5212    N        0.88291    0.21147    0.17723    1.000
    N5213    N        0.92232    0.19289    0.23274    1.000
    Si5214   Si       0.93040    0.13080    0.16903    1.000
    N5215    N        0.89346    0.07515    0.30174    1.000
    N5216    N        0.90937    0.01843    0.25552    1.000
    N5217    N        0.90720    0.12300    0.35214    1.000
    Si5218   Si       0.87839    0.09185    0.33976    1.000
    Si5219   Si       0.88084    0.03699    0.28230    1.000
    N5220    N        0.90392    0.13042    0.26193    1.000
    Si5221   Si       0.92587    0.09687    0.28096    1.000
    N5222    N        0.88334    0.00835    0.31336    1.000
    Si5223   Si       0.92491    0.00541    0.32878    1.000
    N5224    N        0.87578    0.19185    0.28614    1.000
    Si5225   Si       0.91113    0.17318    0.27002    1.000
    N5226    N        0.90000    0.18920    0.35186    1.000
    N5227    N        0.90559    0.18734    0.49229    1.000
    Si5228   Si       0.90766    0.19854    0.45083    1.000
    N5229    N        0.92632    0.12032    0.48388    1.000
    N5230    N        0.88079    0.07013    0.37807    1.000
    N5231    N        0.89541    0.03054    0.43358    1.000
    Si5232   Si       0.88490    0.10526    0.40680    1.000
    Si5233   Si       0.88403    0.02828    0.39073    1.000
    N5234    N        0.89278    0.02169    0.56921    1.000
    Si5235   Si       0.89122    0.05645    0.53886    1.000
    Si5236   Si       0.89545    0.02841    0.61195    1.000
    N5237    N        0.89408    0.05730    0.49445    1.000
    N5238    N        0.92801    0.11256    0.60754    1.000
    N5239    N        0.92846    0.07994    0.54161    1.000
    N5240    N        0.87595    0.19217    0.57869    1.000
    Si5241   Si       0.90917    0.14978    0.51085    1.000
    Si5242   Si       0.91992    0.18800    0.57530    1.000
    N5243    N        0.87652    0.25246    0.54619    1.000
    Si5244   Si       0.92003    0.25862    0.54728    1.000
    N5245    N        0.88128    0.14068    0.71285    1.000
    N5246    N        0.88037    0.06675    0.62599    1.000
    Si5247   Si       0.92339    0.08115    0.63656    1.000
    N5248    N        0.91484    0.10650    0.67036    1.000
    N5249    N        0.88447    0.02558    0.69934    1.000
    Si5250   Si       0.92618    0.02707    0.71581    1.000
    N5251    N        0.92407    0.22723    0.65843    1.000
    Si5252   Si       0.92485    0.14408    0.63761    1.000
    Si5253   Si       0.92677    0.13480    0.70467    1.000
    N5254    N        0.88372    0.15976    0.64113    1.000
    Si5255   Si       0.93097    0.08067    0.49789    1.000
    N5256    N        0.92619    0.15129    0.55182    1.000
    N5257    N        0.87190    0.25406    0.69352    1.000
    N5258    N        0.91265    0.05480    0.74885    1.000
    N5259    N        0.90284    0.06126    0.81151    1.000
    Si5260   Si       0.89889    0.02899    0.78354    1.000
    N5261    N        0.89548    0.12071    0.77189    1.000
    Si5262   Si       0.91906    0.08598    0.77928    1.000
    N5263    N        0.88153    0.01759    0.85633    1.000
    N5264    N        0.88324    0.20183    0.92181    1.000
    Si5265   Si       0.87483    0.05855    0.84445    1.000
    N5266    N        0.88985    0.18640    0.79948    1.000
    Si5267   Si       0.91462    0.15986    0.77486    1.000
    Si5268   Si       0.92355    0.19282    0.82791    1.000
    N5269    N        0.91261    0.17210    0.86358    1.000
    N5270    N        0.90805    0.24809    0.74999    1.000
    Si5271   Si       0.90507    0.25592    0.79361    1.000
    N5272    N        0.88042    0.09169    0.87312    1.000
    N5273    N        0.92984    0.08978    0.97183    1.000
    Si5274   Si       0.90355    0.09290    0.90947    1.000
    Si5275   Si       0.91583    0.05098    0.95746    1.000
    Si5276   Si       0.89362    0.11167    0.97887    1.000
    N5277    N        0.91938    0.05245    0.91379    1.000
    N5278    N        0.87721    0.04253    0.97432    1.000
    N5279    N        0.87477    0.10711    0.94033    1.000
    Si5280   Si       0.87659    0.18391    0.88327    1.000
    N5281    N        0.92177    0.22262    0.97511    1.000
    N5282    N        0.90915    0.15251    0.97705    1.000
    Si5283   Si       0.92143    0.19951    0.94073    1.000
    N5284    N        0.91083    0.33601    0.03545    1.000
    N5285    N        0.92123    0.27472    0.01113    1.000
    N5286    N        0.89917    0.26361    0.08453    1.000
    Si5287   Si       0.89753    0.31168    0.00218    1.000
    N5288    N        0.92133    0.37554    0.07899    1.000
    Si5289   Si       0.91957    0.35994    0.11943    1.000
    Si5290   Si       0.88955    0.37418    0.04641    1.000
    Si5291   Si       0.92833    0.27173    0.05364    1.000
    N5292    N        0.88300    0.38504    0.00381    1.000
    N5293    N        0.90345    0.42706    0.04521    1.000
    Si5294   Si       0.89710    0.45916    0.07220    1.000
    N5295    N        0.91920    0.49299    0.05664    1.000
    Si5296   Si       0.89033    0.43075    0.00243    1.000
    Si5297   Si       0.92618    0.50007    0.01401    1.000
    Si5298   Si       0.87665    0.28780    0.10964    1.000
    N5299    N        0.92852    0.44424    0.10106    1.000
    N5300    N        0.88796    0.33093    0.12380    1.000
    Si5301   Si       0.89179    0.31244    0.16354    1.000
    N5302    N        0.88946    0.27237    0.14703    1.000
    N5303    N        0.92654    0.32691    0.18295    1.000
    N5304    N        0.89254    0.45567    0.22311    1.000
    Si5305   Si       0.87176    0.40622    0.15955    1.000
    Si5306   Si       0.89184    0.47082    0.18386    1.000
    N5307    N        0.91018    0.38518    0.15366    1.000
    N5308    N        0.90060    0.31765    0.34453    1.000
    Si5309   Si       0.87760    0.28055    0.35472    1.000
    Si5310   Si       0.92205    0.34828    0.25374    1.000
    N5311    N        0.87713    0.34899    0.24831    1.000
    Si5312   Si       0.90638    0.45291    0.26634    1.000
    N5313    N        0.91576    0.41378    0.33054    1.000
    N5314    N        0.91083    0.49210    0.28202    1.000
    Si5315   Si       0.87490    0.40588    0.31577    1.000
    N5316    N        0.90317    0.47903    0.36551    1.000
    N5317    N        0.91761    0.30439    0.44418    1.000
    N5318    N        0.90872    0.36703    0.41756    1.000
    Si5319   Si       0.91338    0.30409    0.48873    1.000
    Si5320   Si       0.91986    0.26966    0.41985    1.000
    N5321    N        0.88560    0.26143    0.39354    1.000
    Si5322   Si       0.86946    0.38421    0.42018    1.000
    Si5323   Si       0.90470    0.48728    0.46704    1.000
    N5324    N        0.87493    0.42063    0.27356    1.000
    N5325    N        0.90341    0.35519    0.54968    1.000
    Si5326   Si       0.90052    0.36976    0.59177    1.000
    Si5327   Si       0.90197    0.30446    0.60997    1.000
    N5328    N        0.87564    0.31044    0.50871    1.000
    N5329    N        0.87906    0.34068    0.61478    1.000
    N5330    N        0.87622    0.40486    0.59377    1.000
    N5331    N        0.90307    0.47329    0.50897    1.000
    N5332    N        0.90964    0.49013    0.58196    1.000
    Si5333   Si       0.92077    0.49971    0.54122    1.000
    N5334    N        0.91022    0.40327    0.49948    1.000
    N5335    N        0.88050    0.27817    0.63638    1.000
    Si5336   Si       0.90748    0.26337    0.66985    1.000
    Si5337   Si       0.88334    0.45993    0.74139    1.000
    N5338    N        0.90741    0.40704    0.65623    1.000
    Si5339   Si       0.92067    0.42594    0.69556    1.000
    N5340    N        0.92795    0.39347    0.72439    1.000
    N5341    N        0.89075    0.46024    0.69692    1.000
    N5342    N        0.92711    0.28953    0.57701    1.000
    N5343    N        0.89446    0.35149    0.77670    1.000
    N5344    N        0.92334    0.29444    0.80405    1.000
    Si5345   Si       0.90540    0.39339    0.76311    1.000
    Si5346   Si       0.90281    0.45244    0.85930    1.000
    N5347    N        0.91278    0.40737    0.86315    1.000
    N5348    N        0.89818    0.49756    0.86731    1.000
    N5349    N        0.87239    0.42031    0.75796    1.000
    N5350    N        0.92491    0.46406    0.75802    1.000
    Si5351   Si       0.87948    0.31519    0.92282    1.000
    N5352    N        0.88914    0.33038    0.96297    1.000
    N5353    N        0.88757    0.27300    0.92180    1.000
    N5354    N        0.90852    0.33743    0.89625    1.000
    Si5355   Si       0.87320    0.37134    0.96375    1.000
    Si5356   Si       0.89617    0.50067    0.91215    1.000
    Si5357   Si       0.89623    0.37839    0.89102    1.000
    N5358    N        0.90390    0.45208    0.91017    1.000
    N5359    N        0.92810    0.43173    0.97970    1.000
    N5360    N        0.89288    0.39425    0.93291    1.000
    Si5361   Si       0.92668    0.42364    0.93591    1.000
    N5362    N        0.89059    0.47870    0.00070    1.000
    N5363    N        0.88494    0.55260    0.07925    1.000
    Si5364   Si       0.88937    0.59407    0.06734    1.000
    Si5365   Si       0.91938    0.52567    0.08335    1.000
    N5366    N        0.88815    0.61554    0.10501    1.000
    N5367    N        0.92161    0.54104    0.00177    1.000
    N5368    N        0.91827    0.72638    0.22244    1.000
    Si5369   Si       0.90859    0.73323    0.01955    1.000
    N5370    N        0.91911    0.68774    0.11013    1.000
    Si5371   Si       0.88850    0.65859    0.10250    1.000
    N5372    N        0.90188    0.65493    0.00400    1.000
    N5373    N        0.91545    0.50847    0.12397    1.000
    Si5374   Si       0.90590    0.53363    0.15781    1.000
    N5375    N        0.88203    0.57012    0.15173    1.000
    Si5376   Si       0.88131    0.59688    0.18574    1.000
    N5377    N        0.87700    0.51151    0.18164    1.000
    N5378    N        0.92277    0.60486    0.19840    1.000
    N5379    N        0.87304    0.64002    0.18471    1.000
    N5380    N        0.88880    0.72083    0.16273    1.000
    Si5381   Si       0.88310    0.73996    0.20138    1.000
    Si5382   Si       0.92766    0.70381    0.14900    1.000
    Si5383   Si       0.91442    0.64637    0.19957    1.000
    N5384    N        0.89005    0.55076    0.32373    1.000
    Si5385   Si       0.88004    0.51732    0.29875    1.000
    N5386    N        0.88694    0.59909    0.36053    1.000
    Si5387   Si       0.88391    0.59878    0.31596    1.000
    N5388    N        0.92456    0.55674    0.25636    1.000
    Si5389   Si       0.88382    0.56616    0.24935    1.000
    Si5390   Si       0.89597    0.55604    0.36485    1.000
    Si5391   Si       0.88501    0.67242    0.34789    1.000
    Si5392   Si       0.91490    0.74607    0.29586    1.000
    Si5393   Si       0.91242    0.69650    0.25287    1.000
    N5394    N        0.88375    0.64632    0.31360    1.000
    N5395    N        0.88212    0.71500    0.35240    1.000
    Si5396   Si       0.91383    0.74161    0.36831    1.000
    N5397    N        0.92126    0.66101    0.36905    1.000
    N5398    N        0.87248    0.68435    0.25806    1.000
    N5399    N        0.91984    0.52763    0.46285    1.000
    N5400    N        0.89526    0.61611    0.48329    1.000
    Si5401   Si       0.90267    0.62294    0.44114    1.000
    N5402    N        0.92015    0.58579    0.42639    1.000
    Si5403   Si       0.89300    0.55161    0.43606    1.000
    N5404    N        0.87264    0.54132    0.39876    1.000
    N5405    N        0.88194    0.73254    0.44732    1.000
    Si5406   Si       0.92470    0.74301    0.44131    1.000
    Si5407   Si       0.89123    0.69250    0.46415    1.000
    N5408    N        0.91317    0.66551    0.43973    1.000
    N5409    N        0.89838    0.53575    0.52987    1.000
    N5410    N        0.89063    0.57122    0.58753    1.000
    Si5411   Si       0.90103    0.61264    0.58833    1.000
    N5412    N        0.91335    0.62923    0.54964    1.000
    Si5413   Si       0.87429    0.54368    0.61561    1.000
    Si5414   Si       0.92762    0.61736    0.51141    1.000
    Si5415   Si       0.86625    0.70826    0.67870    1.000
    N5416    N        0.88398    0.68607    0.57760    1.000
    Si5417   Si       0.90780    0.67024    0.54524    1.000
    N5418    N        0.88734    0.68900    0.50992    1.000
    Si5419   Si       0.90321    0.70816    0.61048    1.000
    Si5420   Si       0.92633    0.71852    0.51465    1.000
    N5421    N        0.91293    0.75307    0.53975    1.000
    N5422    N        0.92240    0.62947    0.62245    1.000
    N5423    N        0.92663    0.52139    0.70563    1.000
    N5424    N        0.90256    0.61760    0.72175    1.000
    N5425    N        0.92152    0.57786    0.66556    1.000
    N5426    N        0.89540    0.51645    0.64199    1.000
    Si5427   Si       0.88685    0.59118    0.68880    1.000
    Si5428   Si       0.92616    0.53467    0.66591    1.000
    N5429    N        0.88802    0.73735    0.70234    1.000
    Si5430   Si       0.87798    0.71515    0.74124    1.000
    Si5431   Si       0.88430    0.64591    0.63929    1.000
    N5432    N        0.88918    0.68874    0.64593    1.000
    N5433    N        0.88499    0.56889    0.83535    1.000
    N5434    N        0.91438    0.54390    0.77106    1.000
    Si5435   Si       0.90206    0.61248    0.84493    1.000
    Si5436   Si       0.92282    0.56162    0.81033    1.000
    Si5437   Si       0.87236    0.53154    0.77638    1.000
    N5438    N        0.91130    0.70591    0.76770    1.000
    Si5439   Si       0.91128    0.72169    0.80869    1.000
    N5440    N        0.88124    0.70100    0.82932    1.000
    N5441    N        0.92519    0.65066    0.85657    1.000
    Si5442   Si       0.90049    0.68669    0.86492    1.000
    N5443    N        0.91372    0.58625    0.94370    1.000
    Si5444   Si       0.90032    0.58297    0.90435    1.000
    N5445    N        0.87653    0.54608    0.90440    1.000
    N5446    N        0.87653    0.61329    0.88662    1.000
    N5447    N        0.92508    0.71955    0.98351    1.000
    N5448    N        0.92306    0.71494    0.89128    1.000
    Si5449   Si       0.90590    0.68174    0.96987    1.000
    N5450    N        0.92969    0.66080    0.94252    1.000
    N5451    N        0.89806    0.80851    0.08898    1.000
    N5452    N        0.90211    0.77858    0.01109    1.000
    Si5453   Si       0.88477    0.84909    0.07531    1.000
    N5454    N        0.92175    0.87165    0.07151    1.000
    Si5455   Si       0.90906    0.91151    0.06270    1.000
    N5456    N        0.89313    0.93732    0.09393    1.000
    Si5457   Si       0.87722    0.94627    0.99989    1.000
    Si5458   Si       0.89290    0.00046    0.04944    1.000
    N5459    N        0.91290    0.92089    0.99669    1.000
    N5460    N        0.87137    0.96437    0.03745    1.000
    N5461    N        0.88593    0.78138    0.21034    1.000
    N5462    N        0.91031    0.83669    0.23057    1.000
    Si5463   Si       0.89668    0.81845    0.19072    1.000
    Si5464   Si       0.87629    0.87929    0.15430    1.000
    N5465    N        0.92013    0.87966    0.16134    1.000
    N5466    N        0.93110    0.80732    0.16694    1.000
    Si5467   Si       0.90409    0.96553    0.12477    1.000
    N5468    N        0.91386    0.94708    0.16445    1.000
    Si5469   Si       0.90370    0.97075    0.19875    1.000
    N5470    N        0.89709    0.86759    0.29547    1.000
    N5471    N        0.89639    0.83397    0.34948    1.000
    Si5472   Si       0.92177    0.86565    0.33253    1.000
    Si5473   Si       0.89899    0.87493    0.25103    1.000
    Si5474   Si       0.89635    0.79713    0.25018    1.000
    N5475    N        0.92865    0.77886    0.27121    1.000
    Si5476   Si       0.91168    0.97656    0.26973    1.000
    N5477    N        0.87390    0.95330    0.27585    1.000
    N5478    N        0.92487    0.89928    0.35968    1.000
    N5479    N        0.91786    0.00581    0.37124    1.000
    N5480    N        0.90422    0.83766    0.49210    1.000
    Si5481   Si       0.89989    0.81002    0.38774    1.000
    Si5482   Si       0.89319    0.80287    0.46680    1.000
    N5483    N        0.88048    0.82151    0.42695    1.000
    N5484    N        0.88441    0.77089    0.37807    1.000
    N5485    N        0.92820    0.78162    0.45311    1.000
    N5486    N        0.87168    0.94906    0.46893    1.000
    N5487    N        0.91587    0.89842    0.45046    1.000
    Si5488   Si       0.89733    0.92801    0.37690    1.000
    Si5489   Si       0.87517    0.91296    0.44583    1.000
    N5490    N        0.93172    0.94464    0.40068    1.000
    Si5491   Si       0.87038    0.83539    0.31402    1.000
    N5492    N        0.86791    0.80781    0.28073    1.000
    N5493    N        0.87073    0.95115    0.34962    1.000
    Si5494   Si       0.90112    0.96677    0.49645    1.000
    N5495    N        0.88949    0.81533    0.55183    1.000
    Si5496   Si       0.88337    0.84933    0.52671    1.000
    Si5497   Si       0.91863    0.82546    0.58176    1.000
    Si5498   Si       0.87722    0.77724    0.53540    1.000
    N5499    N        0.90346    0.83204    0.61985    1.000
    N5500    N        0.89512    0.88839    0.54227    1.000
    N5501    N        0.92608    0.88561    0.65783    1.000
    Si5502   Si       0.92787    0.95395    0.71851    1.000
    N5503    N        0.92677    0.94575    0.62194    1.000
    N5504    N        0.90203    0.95140    0.68454    1.000
    N5505    N        0.90528    0.85766    0.73658    1.000
    N5506    N        0.89543    0.82202    0.67995    1.000
    Si5507   Si       0.87883    0.82583    0.71911    1.000
    Si5508   Si       0.92455    0.84305    0.65546    1.000
    Si5509   Si       0.88414    0.95414    0.62156    1.000
    Si5510   Si       0.88231    0.89421    0.74540    1.000
    N5511    N        0.87564    0.99590    0.63375    1.000
    Si5512   Si       0.88251    0.79174    0.83301    1.000
    Si5513   Si       0.91846    0.78764    0.76959    1.000
    N5514    N        0.90632    0.76616    0.80497    1.000
    N5515    N        0.88475    0.83491    0.82835    1.000
    Si5516   Si       0.87990    0.87670    0.81870    1.000
    N5517    N        0.87736    0.79785    0.75302    1.000
    N5518    N        0.89939    0.78081    0.87271    1.000
    N5519    N        0.92435    0.88633    0.80826    1.000
    N5520    N        0.91454    0.99350    0.80170    1.000
    Si5521   Si       0.91520    0.99273    0.84457    1.000
    N5522    N        0.91071    0.92591    0.75182    1.000
    N5523    N        0.88287    0.81334    0.93186    1.000
    N5524    N        0.87411    0.86947    0.97543    1.000
    Si5525   Si       0.92549    0.81140    0.93645    1.000
    N5526    N        0.90209    0.96109    0.87349    1.000
    N5527    N        0.89189    0.91368    0.92131    1.000
    Si5528   Si       0.89887    0.91696    0.87941    1.000
    Si5529   Si       0.90642    0.89732    0.95899    1.000
    N5530    N        0.89355    0.98002    0.97757    1.000
    Si5531   Si       0.93267    0.75802    0.88979    1.000
    N5532    N        0.97089    0.03587    0.08358    1.000
    Si5533   Si       0.96991    0.02369    0.04280    1.000
    Si5534   Si       0.93837    0.02253    0.10695    1.000
    N5535    N        0.98029    0.06168    0.02458    1.000
    N5536    N        0.98748    0.12136    0.05923    1.000
    Si5537   Si       0.95896    0.14027    0.03071    1.000
    Si5538   Si       0.97845    0.21487    0.04233    1.000
    N5539    N        0.95322    0.18197    0.02143    1.000
    N5540    N        0.96268    0.16009    0.10953    1.000
    N5541    N        0.94627    0.23085    0.06397    1.000
    Si5542   Si       0.96605    0.06562    0.16351    1.000
    N5543    N        0.96043    0.10383    0.18461    1.000
    N5544    N        0.96340    0.03737    0.19693    1.000
    Si5545   Si       0.97562    0.10161    0.22938    1.000
    Si5546   Si       0.96351    0.19105    0.14070    1.000
    Si5547   Si       0.94755    0.22870    0.22916    1.000
    N5548    N        0.93764    0.22521    0.13471    1.000
    N5549    N        0.94107    0.17225    0.17363    1.000
    N5550    N        0.98649    0.21118    0.21717    1.000
    N5551    N        0.93201    0.05643    0.13550    1.000
    N5552    N        0.93338    0.25758    0.19925    1.000
    N5553    N        0.93221    0.00499    0.03168    1.000
    N5554    N        0.95893    0.10854    0.30442    1.000
    N5555    N        0.95544    0.03681    0.32190    1.000
    Si5556   Si       0.97716    0.07592    0.32707    1.000
    N5557    N        0.97523    0.09219    0.36765    1.000
    N5558    N        0.92885    0.23383    0.44255    1.000
    N5559    N        0.94385    0.07859    0.24749    1.000
    N5560    N        0.95620    0.24460    0.26708    1.000
    N5561    N        0.95749    0.22573    0.33631    1.000
    Si5562   Si       0.96576    0.21374    0.29515    1.000
    N5563    N        0.94373    0.17522    0.29888    1.000
    Si5564   Si       0.94058    0.18564    0.34233    1.000
    N5565    N        0.96666    0.15785    0.36063    1.000
    Si5566   Si       0.97832    0.14495    0.29334    1.000
    N5567    N        0.98521    0.13933    0.24941    1.000
    Si5568   Si       0.94460    0.12199    0.37346    1.000
    N5569    N        0.96206    0.01289    0.42086    1.000
    N5570    N        0.95599    0.05831    0.47204    1.000
    Si5571   Si       0.93445    0.02621    0.45210    1.000
    Si5572   Si       0.94684    0.12984    0.44678    1.000
    N5573    N        0.98682    0.11521    0.45457    1.000
    N5574    N        0.94545    0.17394    0.43902    1.000
    N5575    N        0.97581    0.22252    0.48950    1.000
    Si5576   Si       0.96634    0.21039    0.44964    1.000
    N5577    N        0.92746    0.11467    0.41171    1.000
    Si5578   Si       0.94371    0.11077    0.56627    1.000
    N5579    N        0.98626    0.10475    0.57285    1.000
    Si5580   Si       0.95410    0.20021    0.64782    1.000
    N5581    N        0.94328    0.17908    0.61199    1.000
    Si5582   Si       0.97297    0.19890    0.52686    1.000
    N5583    N        0.94120    0.21994    0.55356    1.000
    N5584    N        0.97965    0.15979    0.51058    1.000
    N5585    N        0.94446    0.16677    0.67583    1.000
    N5586    N        0.93583    0.03413    0.62561    1.000
    Si5587   Si       0.97229    0.03456    0.64815    1.000
    N5588    N        0.96879    0.08413    0.64529    1.000
    Si5589   Si       0.97219    0.07947    0.68843    1.000
    N5590    N        0.95989    0.10999    0.71717    1.000
    N5591    N        0.95375    0.04155    0.68844    1.000
    Si5592   Si       0.96677    0.17853    0.71328    1.000
    N5593    N        0.97455    0.22163    0.72262    1.000
    N5594    N        0.93633    0.16405    0.73799    1.000
    N5595    N        0.96046    0.09861    0.78482    1.000
    N5596    N        0.96077    0.11215    0.85233    1.000
    N5597    N        0.95118    0.01107    0.85882    1.000
    Si5598   Si       0.98664    0.10239    0.75148    1.000
    Si5599   Si       0.97140    0.13056    0.81411    1.000
    N5600    N        0.94535    0.16251    0.80590    1.000
    N5601    N        0.93184    0.23463    0.82126    1.000
    N5602    N        0.94490    0.02296    0.96919    1.000
    Si5603   Si       0.97068    0.08204    0.98731    1.000
    Si5604   Si       0.95193    0.02943    0.89722    1.000
    N5605    N        0.97577    0.12700    0.98887    1.000
    Si5606   Si       0.98493    0.02416    0.95264    1.000
    N5607    N        0.93441    0.12453    0.91519    1.000
    N5608    N        0.98326    0.06062    0.89545    1.000
    Si5609   Si       0.97497    0.19928    0.90837    1.000
    Si5610   Si       0.94366    0.14451    0.87824    1.000
    N5611    N        0.94103    0.22793    0.90863    1.000
    N5612    N        0.98558    0.24139    0.98123    1.000
    Si5613   Si       0.94606    0.13585    0.95621    1.000
    N5614    N        0.95684    0.17574    0.94161    1.000
    N5615    N        0.97987    0.16904    0.87872    1.000
    N5616    N        0.95663    0.30015    0.06719    1.000
    Si5617   Si       0.94632    0.34235    0.06105    1.000
    Si5618   Si       0.97722    0.30571    0.10583    1.000
    N5619    N        0.97938    0.36117    0.04125    1.000
    N5620    N        0.97775    0.30506    0.00443    1.000
    N5621    N        0.96852    0.42814    0.04024    1.000
    Si5622   Si       0.94324    0.41480    0.07429    1.000
    Si5623   Si       0.96344    0.44342    0.00056    1.000
    N5624    N        0.98501    0.40373    0.09454    1.000
    N5625    N        0.96503    0.48879    0.00088    1.000
    N5626    N        0.96037    0.34303    0.11775    1.000
    Si5627   Si       0.94692    0.29842    0.20754    1.000
    Si5628   Si       0.94006    0.36804    0.18235    1.000
    N5629    N        0.93803    0.37545    0.22449    1.000
    N5630    N        0.98245    0.27664    0.13468    1.000
    N5631    N        0.98867    0.30448    0.19692    1.000
    N5632    N        0.97404    0.39270    0.16523    1.000
    Si5633   Si       0.95968    0.50351    0.19241    1.000
    N5634    N        0.96067    0.49324    0.23482    1.000
    N5635    N        0.98270    0.48717    0.12479    1.000
    Si5636   Si       0.94140    0.47377    0.12907    1.000
    N5637    N        0.93431    0.47127    0.17238    1.000
    N5638    N        0.96292    0.29584    0.32027    1.000
    N5639    N        0.96068    0.36065    0.35807    1.000
    Si5640   Si       0.96726    0.28560    0.27833    1.000
    Si5641   Si       0.93988    0.33319    0.33044    1.000
    Si5642   Si       0.96769    0.26502    0.35249    1.000
    N5643    N        0.93571    0.35965    0.29500    1.000
    N5644    N        0.94507    0.31076    0.24870    1.000
    N5645    N        0.95942    0.47490    0.34193    1.000
    Si5646   Si       0.94761    0.40255    0.30194    1.000
    N5647    N        0.94366    0.43379    0.27105    1.000
    Si5648   Si       0.97686    0.45531    0.25176    1.000
    N5649    N        0.98371    0.41446    0.32170    1.000
    Si5650   Si       0.93083    0.44488    0.35531    1.000
    N5651    N        0.96930    0.36792    0.42600    1.000
    N5652    N        0.95567    0.27593    0.39394    1.000
    Si5653   Si       0.93541    0.34470    0.44412    1.000
    N5654    N        0.93628    0.34349    0.48854    1.000
    Si5655   Si       0.94161    0.38031    0.39138    1.000
    Si5656   Si       0.97596    0.26648    0.49487    1.000
    Si5657   Si       0.94264    0.50145    0.36945    1.000
    N5658    N        0.94222    0.42278    0.38974    1.000
    N5659    N        0.93192    0.45606    0.45617    1.000
    N5660    N        0.96708    0.49048    0.40450    1.000
    Si5661   Si       0.95633    0.45245    0.42262    1.000
    Si5662   Si       0.93065    0.44133    0.49809    1.000
    Si5663   Si       0.96630    0.29845    0.60030    1.000
    Si5664   Si       0.97550    0.37367    0.58421    1.000
    N5665    N        0.93718    0.27504    0.50969    1.000
    N5666    N        0.96893    0.37573    0.54043    1.000
    Si5667   Si       0.93101    0.37104    0.52055    1.000
    N5668    N        0.97884    0.40241    0.66270    1.000
    N5669    N        0.93962    0.37791    0.60660    1.000
    Si5670   Si       0.94371    0.49186    0.61134    1.000
    N5671    N        0.96973    0.43748    0.51491    1.000
    N5672    N        0.97673    0.48873    0.58126    1.000
    Si5673   Si       0.95985    0.36341    0.73125    1.000
    N5674    N        0.96799    0.34153    0.69353    1.000
    Si5675   Si       0.96374    0.30458    0.67095    1.000
    N5676    N        0.93902    0.30677    0.63535    1.000
    N5677    N        0.93831    0.27786    0.69493    1.000
    N5678    N        0.95043    0.45047    0.62631    1.000
    Si5679   Si       0.94603    0.48466    0.72576    1.000
    Si5680   Si       0.98946    0.44521    0.67158    1.000
    N5681    N        0.95557    0.45632    0.69530    1.000
    Si5682   Si       0.94433    0.40977    0.63521    1.000
    Si5683   Si       0.94718    0.25441    0.72999    1.000
    N5684    N        0.96144    0.33955    0.76640    1.000
    Si5685   Si       0.95093    0.27391    0.82944    1.000
    N5686    N        0.94396    0.35045    0.83738    1.000
    N5687    N        0.97951    0.27305    0.75285    1.000
    Si5688   Si       0.93104    0.33921    0.79779    1.000
    Si5689   Si       0.95568    0.49655    0.84503    1.000
    Si5690   Si       0.94452    0.39398    0.83659    1.000
    Si5691   Si       0.94655    0.44538    0.79145    1.000
    N5692    N        0.98024    0.41304    0.85170    1.000
    N5693    N        0.93304    0.40276    0.79446    1.000
    N5694    N        0.93507    0.46292    0.82940    1.000
    N5695    N        0.94116    0.28301    0.87108    1.000
    Si5696   Si       0.94472    0.32727    0.87419    1.000
    N5697    N        0.97175    0.36061    0.96314    1.000
    N5698    N        0.98104    0.32764    0.89928    1.000
    Si5699   Si       0.97007    0.32217    0.94128    1.000
    N5700    N        0.94469    0.28749    0.94715    1.000
    Si5701   Si       0.98262    0.43901    0.88580    1.000
    N5702    N        0.96466    0.47940    0.88497    1.000
    N5703    N        0.96603    0.41604    0.91971    1.000
    Si5704   Si       0.92896    0.26947    0.91029    1.000
    N5705    N        0.98849    0.43873    0.77829    1.000
    Si5706   Si       0.94551    0.25852    0.97927    1.000
    Si5707   Si       0.96417    0.58604    0.06961    1.000
    N5708    N        0.95752    0.54457    0.08266    1.000
    Si5709   Si       0.93538    0.63538    0.02536    1.000
    N5710    N        0.92863    0.60220    0.05176    1.000
    N5711    N        0.95468    0.66250    0.05193    1.000
    Si5712   Si       0.94632    0.69751    0.07729    1.000
    N5713    N        0.93838    0.73204    0.05290    1.000
    N5714    N        0.98704    0.69185    0.09438    1.000
    N5715    N        0.97553    0.60818    0.15716    1.000
    Si5716   Si       0.95881    0.58190    0.18788    1.000
    N5717    N        0.94351    0.54118    0.17992    1.000
    N5718    N        0.93004    0.66059    0.23812    1.000
    N5719    N        0.95408    0.73861    0.16266    1.000
    N5720    N        0.93928    0.66838    0.17135    1.000
    Si5721   Si       0.97106    0.66882    0.23709    1.000
    N5722    N        0.98154    0.70518    0.21514    1.000
    Si5723   Si       0.97923    0.64974    0.17223    1.000
    Si5724   Si       0.95651    0.73801    0.20577    1.000
    Si5725   Si       0.99092    0.65175    0.07332    1.000
    N5726    N        0.97260    0.53819    0.28949    1.000
    Si5727   Si       0.95516    0.57958    0.28230    1.000
    Si5728   Si       0.94181    0.51850    0.26456    1.000
    N5729    N        0.93267    0.60244    0.30988    1.000
    Si5730   Si       0.94126    0.62787    0.34591    1.000
    Si5731   Si       0.96945    0.69134    0.30908    1.000
    N5732    N        0.97693    0.65292    0.33127    1.000
    N5733    N        0.93473    0.70909    0.28819    1.000
    N5734    N        0.93253    0.72602    0.40275    1.000
    N5735    N        0.93571    0.54335    0.37490    1.000
    N5736    N        0.96809    0.60784    0.37662    1.000
    Si5737   Si       0.95249    0.57434    0.40216    1.000
    N5738    N        0.98758    0.56003    0.42555    1.000
    Si5739   Si       0.93470    0.68160    0.40324    1.000
    N5740    N        0.95245    0.64941    0.49421    1.000
    Si5741   Si       0.95160    0.67504    0.46062    1.000
    N5742    N        0.97192    0.67162    0.42339    1.000
    N5743    N        0.93629    0.71567    0.47445    1.000
    N5744    N        0.99003    0.60293    0.26869    1.000
    N5745    N        0.95098    0.58220    0.50702    1.000
    N5746    N        0.95627    0.51600    0.52211    1.000
    Si5747   Si       0.99016    0.51472    0.54986    1.000
    N5748    N        0.94661    0.69358    0.54340    1.000
    N5749    N        0.93706    0.73337    0.60581    1.000
    N5750    N        0.98447    0.74480    0.55117    1.000
    Si5751   Si       0.98868    0.69984    0.54814    1.000
    N5752    N        0.96319    0.58167    0.73106    1.000
    Si5753   Si       0.94966    0.60905    0.64949    1.000
    N5754    N        0.96049    0.51888    0.64261    1.000
    Si5755   Si       0.94624    0.62180    0.72107    1.000
    Si5756   Si       0.94353    0.54478    0.73889    1.000
    N5757    N        0.97412    0.51143    0.74288    1.000
    N5758    N        0.98776    0.59788    0.63190    1.000
    N5759    N        0.95614    0.63756    0.68153    1.000
    N5760    N        0.97960    0.70163    0.64794    1.000
    Si5761   Si       0.93059    0.74211    0.70835    1.000
    N5762    N        0.94873    0.70340    0.70860    1.000
    Si5763   Si       0.97468    0.67890    0.68508    1.000
    Si5764   Si       0.96633    0.74282    0.63721    1.000
    Si5765   Si       0.93091    0.54581    0.50182    1.000
    Si5766   Si       0.94644    0.75571    0.56792    1.000
    N5767    N        0.94936    0.53891    0.83693    1.000
    Si5768   Si       0.97134    0.56645    0.86117    1.000
    Si5769   Si       0.96482    0.62861    0.78993    1.000
    N5770    N        0.93583    0.60269    0.80847    1.000
    Si5771   Si       0.97452    0.68453    0.84830    1.000
    N5772    N        0.94907    0.71593    0.82748    1.000
    N5773    N        0.95223    0.64983    0.75474    1.000
    Si5774   Si       0.98057    0.74533    0.83478    1.000
    N5775    N        0.98404    0.65956    0.81455    1.000
    Si5776   Si       0.95028    0.69255    0.75188    1.000
    N5777    N        0.98822    0.71325    0.76069    1.000
    Si5778   Si       0.98415    0.75704    0.76071    1.000
    Si5779   Si       0.95521    0.62848    0.87877    1.000
    N5780    N        0.98113    0.54371    0.89735    1.000
    N5781    N        0.97218    0.56149    0.96200    1.000
    Si5782   Si       0.94216    0.62052    0.95312    1.000
    N5783    N        0.97455    0.61190    0.92565    1.000
    N5784    N        0.95686    0.61521    0.99371    1.000
    N5785    N        0.93243    0.58828    0.87525    1.000
    Si5786   Si       0.92945    0.54922    0.96215    1.000
    N5787    N        0.93025    0.51563    0.93494    1.000
    N5788    N        0.97675    0.71661    0.93854    1.000
    Si5789   Si       0.95365    0.74452    0.96239    1.000
    Si5790   Si       0.95096    0.68979    0.91500    1.000
    N5791    N        0.97586    0.66791    0.88789    1.000
    N5792    N        0.99000    0.60654    0.86398    1.000
    Si5793   Si       0.97144    0.50793    0.91885    1.000
    Si5794   Si       0.98474    0.58314    0.99582    1.000
    N5795    N        0.95407    0.80386    0.04776    1.000
    N5796    N        0.95999    0.77568    0.10512    1.000
    Si5797   Si       0.94167    0.79792    0.00819    1.000
    Si5798   Si       0.94159    0.81178    0.08900    1.000
    Si5799   Si       0.96816    0.76352    0.06377    1.000
    Si5800   Si       0.95537    0.87808    0.09747    1.000
    N5801    N        0.95397    0.84106    0.11707    1.000
    N5802    N        0.97985    0.88580    0.00977    1.000
    Si5803   Si       0.96243    0.94772    0.09519    1.000
    N5804    N        0.94653    0.93053    0.05570    1.000
    Si5805   Si       0.95361    0.92034    0.01377    1.000
    N5806    N        0.94346    0.98084    0.11633    1.000
    N5807    N        0.92869    0.96010    0.23262    1.000
    N5808    N        0.95717    0.91476    0.12256    1.000
    Si5809   Si       0.94648    0.91728    0.16347    1.000
    Si5810   Si       0.94627    0.84664    0.15800    1.000
    N5811    N        0.97409    0.85114    0.19134    1.000
    N5812    N        0.97840    0.77192    0.22592    1.000
    Si5813   Si       0.96057    0.77841    0.14868    1.000
    Si5814   Si       0.95179    0.85116    0.22844    1.000
    N5815    N        0.93804    0.89200    0.23832    1.000
    Si5816   Si       0.95776    0.92933    0.23248    1.000
    N5817    N        0.97338    0.93624    0.19293    1.000
    N5818    N        0.96209    0.84694    0.32972    1.000
    Si5819   Si       0.96999    0.79056    0.26319    1.000
    N5820    N        0.97131    0.83417    0.26345    1.000
    Si5821   Si       0.97193    0.82547    0.36747    1.000
    Si5822   Si       0.97897    0.76327    0.32851    1.000
    Si5823   Si       0.97866    0.95342    0.30345    1.000
    N5824    N        0.94030    0.97408    0.30195    1.000
    N5825    N        0.98162    0.92427    0.33448    1.000
    N5826    N        0.98785    0.93622    0.26493    1.000
    Si5827   Si       0.96219    0.80365    0.43448    1.000
    N5828    N        0.96562    0.84198    0.45176    1.000
    N5829    N        0.94200    0.81192    0.39574    1.000
    Si5830   Si       0.93175    0.86547    0.47286    1.000
    Si5831   Si       0.94490    0.92393    0.43653    1.000
    Si5832   Si       0.96392    0.92030    0.37499    1.000
    Si5833   Si       0.94930    0.98456    0.39122    1.000
    N5834    N        0.97338    0.89934    0.41374    1.000
    N5835    N        0.93361    0.99510    0.48378    1.000
    N5836    N        0.97569    0.94476    0.46009    1.000
    N5837    N        0.93555    0.75803    0.33453    1.000
    Si5838   Si       0.96454    0.96624    0.49767    1.000
    N5839    N        0.94520    0.85669    0.56694    1.000
    N5840    N        0.95099    0.79491    0.58516    1.000
    Si5841   Si       0.98385    0.87423    0.57335    1.000
    Si5842   Si       0.98402    0.80909    0.61079    1.000
    N5843    N        0.93227    0.94196    0.51523    1.000
    N5844    N        0.95669    0.88139    0.50537    1.000
    Si5845   Si       0.93731    0.90360    0.53800    1.000
    N5846    N        0.96394    0.91430    0.57200    1.000
    Si5847   Si       0.96439    0.94575    0.60088    1.000
    N5848    N        0.98094    0.92456    0.63700    1.000
    N5849    N        0.97923    0.82975    0.71425    1.000
    N5850    N        0.96678    0.82997    0.64693    1.000
    N5851    N        0.94309    0.76349    0.74436    1.000
    Si5852   Si       0.94824    0.84799    0.74323    1.000
    N5853    N        0.94897    0.75839    0.67356    1.000
    Si5854   Si       0.93986    0.92673    0.66044    1.000
    N5855    N        0.95795    0.92741    0.70065    1.000
    N5856    N        0.93794    0.99129    0.73812    1.000
    N5857    N        0.94420    0.81974    0.77599    1.000
    N5858    N        0.96823    0.83370    0.84206    1.000
    Si5859   Si       0.95307    0.87571    0.83846    1.000
    Si5860   Si       0.97761    0.81469    0.80422    1.000
    N5861    N        0.98543    0.77308    0.80316    1.000
    N5862    N        0.96878    0.76974    0.86907    1.000
    N5863    N        0.96368    0.94519    0.79514    1.000
    Si5864   Si       0.94151    0.91094    0.77742    1.000
    Si5865   Si       0.95063    0.98417    0.78087    1.000
    N5866    N        0.96804    0.88688    0.75300    1.000
    N5867    N        0.98462    0.00701    0.79800    1.000
    Si5868   Si       0.97873    0.81121    0.88078    1.000
    Si5869   Si       0.95549    0.87721    0.90872    1.000
    N5870    N        0.93898    0.82686    0.97555    1.000
    N5871    N        0.95232    0.83295    0.91004    1.000
    Si5872   Si       0.96910    0.85922    0.97571    1.000
    N5873    N        0.97239    0.77214    0.99001    1.000
    N5874    N        0.93521    0.76934    0.93261    1.000
    Si5875   Si       0.93428    0.98718    0.99258    1.000
    N5876    N        0.93582    0.89560    0.87305    1.000
    N5877    N        0.94708    0.88625    0.95120    1.000
    N5878    N        0.97579    0.99899    0.91713    1.000
    N5879    N        0.96796    0.95819    0.99561    1.000
