# CIF file generated by openbabel 3.1.1, see https://openbabel.org
data_I
_chemical_name_common '3.01-25.aims'
_cell_length_a 40.0251
_cell_length_b 40.0251
_cell_length_c 40.0251
_cell_angle_alpha 90
_cell_angle_beta 90
_cell_angle_gamma 90
loop_
    _atom_site_label
    _atom_site_type_symbol
    _atom_site_fract_x
    _atom_site_fract_y
    _atom_site_fract_z
    _atom_site_occupancy
    N0       N        0.07208    0.04965    0.07705    1.000
    Si1      Si       0.09916    0.01499    0.07518    1.000
    Si2      Si       0.03345    0.05016    0.05886    1.000
    N3       N        0.03840    0.03269    0.01743    1.000
    N4       N        0.99825    0.02284    0.06323    1.000
    Si5      Si       0.07584    0.01993    0.00241    1.000
    Si6      Si       0.00134    0.01160    0.02124    1.000
    N7       N        0.10977    0.01068    0.03158    1.000
    N8       N        0.13155    0.03012    0.10109    1.000
    N9       N        0.17451    0.04439    0.05007    1.000
    Si10     Si       0.14083    0.04113    0.02238    1.000
    Si11     Si       0.15656    0.06025    0.08712    1.000
    N12      N        0.23070    0.01907    0.08452    1.000
    N13      N        0.22889    0.04005    0.00495    1.000
    Si14     Si       0.21972    0.04244    0.04854    1.000
    Si15     Si       0.21220    0.02808    0.12294    1.000
    N16      N        0.01488    0.04934    0.12458    1.000
    N17      N        0.99848    0.01405    0.18823    1.000
    Si18     Si       0.08335    0.01844    0.19459    1.000
    N19      N        0.05532    0.04915    0.18019    1.000
    Si20     Si       0.00225    0.00990    0.14692    1.000
    Si21     Si       0.13954    0.01736    0.14153    1.000
    N22      N        0.23860    0.03262    0.15523    1.000
    N23      N        0.18950    0.02747    0.21532    1.000
    N24      N        0.11735    0.02161    0.22484    1.000
    N25      N        0.14647    0.04996    0.16769    1.000
    Si26     Si       0.21842    0.04862    0.19107    1.000
    Si27     Si       0.15087    0.04571    0.21026    1.000
    N28      N        0.18935    0.06754    0.11599    1.000
    Si29     Si       0.02937    0.03854    0.27167    1.000
    N30      N        0.00533    0.05638    0.30283    1.000
    Si31     Si       0.01715    0.01982    0.32844    1.000
    Si32     Si       0.10526    0.05534    0.25281    1.000
    N33      N        0.03228    0.03380    0.36564    1.000
    N34      N        0.99972    0.01118    0.24984    1.000
    N35      N        0.04957    0.01135    0.29901    1.000
    N36      N        0.11048    0.04176    0.29336    1.000
    N37      N        0.06133    0.05128    0.24501    1.000
    Si38     Si       0.21939    0.05154    0.46428    1.000
    Si39     Si       0.19014    0.05257    0.31888    1.000
    N40      N        0.18153    0.00926    0.32454    1.000
    N41      N        0.19625    0.05603    0.36527    1.000
    N42      N        0.18883    0.04314    0.43655    1.000
    Si43     Si       0.02358    0.01494    0.45711    1.000
    Si44     Si       0.04815    0.02762    0.40243    1.000
    Si45     Si       0.09626    0.03055    0.45692    1.000
    N46      N        0.03764    0.05148    0.43787    1.000
    N47      N        0.09000    0.02275    0.41267    1.000
    Si48     Si       0.18423    0.01221    0.36798    1.000
    Si49     Si       0.16394    0.00702    0.43657    1.000
    N50      N        0.13284    0.01233    0.46580    1.000
    N51      N        0.06317    0.00719    0.47445    1.000
    N52      N        0.22467    0.02197    0.49600    1.000
    N53      N        0.09361    0.05353    0.54298    1.000
    Si54     Si       0.99731    0.01759    0.55447    1.000
    Si55     Si       0.07998    0.01294    0.54885    1.000
    N56      N        0.03905    0.02064    0.54201    1.000
    Si57     Si       0.99127    0.06445    0.50106    1.000
    Si58     Si       0.13586    0.05456    0.54736    1.000
    N59      N        0.14982    0.01737    0.53410    1.000
    N60      N        0.14648    0.05550    0.59005    1.000
    N61      N        0.21264    0.06198    0.62039    1.000
    N62      N        0.08711    0.04978    0.63319    1.000
    N63      N        0.04337    0.04874    0.69468    1.000
    Si64     Si       0.09786    0.01766    0.73696    1.000
    Si65     Si       0.17105    0.05438    0.63000    1.000
    N66      N        0.16069    0.01514    0.64956    1.000
    N67      N        0.12716    0.04831    0.72340    1.000
    Si68     Si       0.19097    0.01612    0.68263    1.000
    N69      N        0.20181    0.05779    0.68350    1.000
    Si70     Si       0.23746    0.03340    0.53564    1.000
    Si71     Si       0.03715    0.00759    0.69033    1.000
    N72      N        0.99585    0.00740    0.59521    1.000
    Si73     Si       0.01124    0.03765    0.85524    1.000
    N74      N        0.02989    0.03153    0.81234    1.000
    N75      N        0.07004    0.03486    0.76533    1.000
    Si76     Si       0.07239    0.04860    0.80737    1.000
    N77      N        0.10359    0.02922    0.82863    1.000
    Si78     Si       0.02601    0.03269    0.76810    1.000
    N79      N        0.16195    0.04205    0.79568    1.000
    Si80     Si       0.22094    0.05125    0.85534    1.000
    N81      N        0.22916    0.06282    0.81494    1.000
    Si82     Si       0.15816    0.03205    0.74947    1.000
    N83      N        0.21155    0.01052    0.86184    1.000
    Si84     Si       0.13748    0.00965    0.80661    1.000
    N85      N        0.20467    0.04646    0.93233    1.000
    Si86     Si       0.10616    0.02274    0.87149    1.000
    N87      N        0.08945    0.04741    0.97404    1.000
    N88      N        0.01832    0.03324    0.93130    1.000
    N89      N        0.08469    0.04168    0.90439    1.000
    Si90     Si       0.04553    0.05857    0.90968    1.000
    Si91     Si       0.11094    0.03831    0.93979    1.000
    N92      N        0.14820    0.02144    0.88126    1.000
    Si93     Si       0.17088    0.05180    0.90412    1.000
    N94      N        0.16199    0.02845    0.98805    1.000
    Si95     Si       0.20249    0.02945    0.97169    1.000
    N96      N        0.01162    0.08856    0.05481    1.000
    Si97     Si       0.08795    0.08944    0.08428    1.000
    Si98     Si       0.03823    0.11565    0.03714    1.000
    N99      N        0.05279    0.10060    0.99835    1.000
    Si100    Si       0.22374    0.12198    0.18366    1.000
    N101     N        0.14533    0.11986    0.15260    1.000
    N102     N        0.12508    0.08448    0.01366    1.000
    Si103    Si       0.14375    0.11222    0.04030    1.000
    N104     N        0.13089    0.09407    0.07809    1.000
    N105     N        0.18622    0.11466    0.03870    1.000
    N106     N        0.07970    0.09209    0.12663    1.000
    Si107    Si       0.04009    0.07405    0.21326    1.000
    N108     N        0.00039    0.07590    0.23081    1.000
    N109     N        0.02358    0.10763    0.16298    1.000
    N110     N        0.06233    0.11095    0.21711    1.000
    Si111    Si       0.04526    0.07415    0.14493    1.000
    N112     N        0.14177    0.07849    0.23477    1.000
    Si113    Si       0.16870    0.08417    0.15217    1.000
    N114     N        0.19997    0.08680    0.18231    1.000
    N115     N        0.09841    0.09909    0.27457    1.000
    N116     N        0.10933    0.09852    0.34685    1.000
    N117     N        0.23515    0.06635    0.31610    1.000
    Si118    Si       0.11679    0.08059    0.30988    1.000
    N119     N        0.16216    0.08250    0.30848    1.000
    Si120    Si       0.13414    0.11820    0.25152    1.000
    Si121    Si       0.23671    0.07110    0.36085    1.000
    Si122    Si       0.18012    0.07386    0.40726    1.000
    N123     N        0.06734    0.11449    0.43291    1.000
    Si124    Si       0.05418    0.08267    0.46279    1.000
    N125     N        0.09637    0.07080    0.47072    1.000
    Si126    Si       0.11248    0.11636    0.42934    1.000
    N127     N        0.20540    0.08955    0.48014    1.000
    N128     N        0.20470    0.10733    0.41488    1.000
    N129     N        0.13954    0.09045    0.40659    1.000
    Si130    Si       0.13466    0.11971    0.37297    1.000
    N131     N        0.03619    0.09371    0.56700    1.000
    Si132    Si       0.05349    0.11287    0.60306    1.000
    N133     N        0.08171    0.11614    0.52014    1.000
    N134     N        0.09609    0.11157    0.59677    1.000
    Si135    Si       0.05992    0.08079    0.53349    1.000
    Si136    Si       0.99418    0.08908    0.57212    1.000
    N137     N        0.03192    0.07883    0.49853    1.000
    Si138    Si       0.11533    0.07609    0.61276    1.000
    N139     N        0.14966    0.08774    0.52370    1.000
    Si140    Si       0.19244    0.09766    0.52194    1.000
    N141     N        0.21854    0.07174    0.54803    1.000
    Si142    Si       0.23078    0.08472    0.58878    1.000
    Si143    Si       0.11726    0.10070    0.49578    1.000
    Si144    Si       0.11687    0.08943    0.71659    1.000
    Si145    Si       0.01455    0.07790    0.71058    1.000
    N146     N        0.08921    0.09841    0.68608    1.000
    N147     N        0.04057    0.10138    0.64505    1.000
    Si148    Si       0.99782    0.09670    0.64529    1.000
    N149     N        0.03045    0.11804    0.71219    1.000
    Si150    Si       0.06494    0.06994    0.66363    1.000
    N151     N        0.14662    0.08717    0.64285    1.000
    Si152    Si       0.23535    0.06731    0.65709    1.000
    Si153    Si       0.18717    0.08693    0.71246    1.000
    N154     N        0.15120    0.11264    0.70533    1.000
    N155     N        0.21714    0.11764    0.72314    1.000
    N156     N        0.06895    0.09394    0.81495    1.000
    Si157    Si       0.04832    0.10574    0.85155    1.000
    Si158    Si       0.09786    0.12076    0.79574    1.000
    N159     N        0.03367    0.06922    0.86881    1.000
    N160     N        0.14159    0.06761    0.93186    1.000
    N161     N        0.11010    0.11410    0.75340    1.000
    N162     N        0.18799    0.11486    0.79112    1.000
    Si163    Si       0.19229    0.07173    0.79277    1.000
    N164     N        0.12888    0.11880    0.82734    1.000
    N165     N        0.18853    0.07470    0.87364    1.000
    Si166    Si       0.14336    0.11136    0.93958    1.000
    N167     N        0.08005    0.11920    0.87830    1.000
    Si168    Si       0.09437    0.08831    0.98467    1.000
    N169     N        0.04281    0.09720    0.93098    1.000
    Si170    Si       0.02350    0.10905    0.96763    1.000
    N171     N        0.10114    0.11330    0.95015    1.000
    Si172    Si       0.23518    0.07590    0.91778    1.000
    Si173    Si       0.18650    0.11596    0.88072    1.000
    N174     N        0.21933    0.11583    0.91136    1.000
    N175     N        0.18869    0.06435    0.74886    1.000
    N176     N        0.00652    0.06509    0.75052    1.000
    N177     N        0.01529    0.15077    0.03135    1.000
    Si178    Si       0.09815    0.15802    0.06435    1.000
    Si179    Si       0.01804    0.17763    0.99666    1.000
    N180     N        0.11357    0.15573    0.10435    1.000
    N181     N        0.12959    0.15123    0.03371    1.000
    Si182    Si       0.22564    0.15429    0.11148    1.000
    N183     N        0.18477    0.16396    0.11093    1.000
    N184     N        0.22912    0.16648    0.02263    1.000
    Si185    Si       0.14332    0.16943    0.99640    1.000
    Si186    Si       0.22810    0.12216    0.03909    1.000
    Si187    Si       0.99973    0.17584    0.23412    1.000
    N188     N        0.08469    0.15201    0.16384    1.000
    N189     N        0.02746    0.16780    0.20103    1.000
    Si190    Si       0.05003    0.13538    0.18340    1.000
    Si191    Si       0.10598    0.12722    0.13415    1.000
    Si192    Si       0.15430    0.14955    0.18507    1.000
    N193     N        0.19675    0.15212    0.19694    1.000
    N194     N        0.13013    0.14629    0.21961    1.000
    N195     N        0.07268    0.12310    0.06127    1.000
    N196     N        0.05072    0.16602    0.32651    1.000
    N197     N        0.07979    0.16659    0.26425    1.000
    Si198    Si       0.01915    0.17188    0.35548    1.000
    Si199    Si       0.01982    0.15840    0.29655    1.000
    N200     N        0.98972    0.16153    0.32555    1.000
    N201     N        0.21136    0.17428    0.38861    1.000
    N202     N        0.14861    0.14226    0.28262    1.000
    Si203    Si       0.21690    0.17489    0.29078    1.000
    N204     N        0.21339    0.13108    0.29626    1.000
    N205     N        0.17332    0.12881    0.35587    1.000
    Si206    Si       0.03875    0.14586    0.42623    1.000
    N207     N        0.01320    0.14501    0.38930    1.000
    N208     N        0.01278    0.13632    0.45916    1.000
    Si209    Si       0.00332    0.16599    0.49157    1.000
    Si210    Si       0.20915    0.13308    0.37837    1.000
    N211     N        0.11489    0.14887    0.40100    1.000
    N212     N        0.19531    0.16006    0.46017    1.000
    N213     N        0.12538    0.13122    0.46802    1.000
    Si214    Si       0.12701    0.17537    0.47584    1.000
    N215     N        0.05746    0.18279    0.42910    1.000
    Si216    Si       0.06638    0.12407    0.25919    1.000
    Si217    Si       0.17402    0.12445    0.31331    1.000
    N218     N        0.02419    0.12376    0.27308    1.000
    Si219    Si       0.21580    0.12180    0.45407    1.000
    N220     N        0.03861    0.15444    0.60045    1.000
    N221     N        0.02885    0.16147    0.52762    1.000
    Si222    Si       0.01176    0.15822    0.56720    1.000
    Si223    Si       0.07308    0.15684    0.52817    1.000
    N224     N        0.09729    0.17548    0.56188    1.000
    N225     N        0.18004    0.14636    0.65119    1.000
    Si226    Si       0.11409    0.15252    0.59626    1.000
    N227     N        0.20624    0.13774    0.53079    1.000
    N228     N        0.15280    0.17064    0.59320    1.000
    Si229    Si       0.19307    0.17013    0.50324    1.000
    Si230    Si       0.23313    0.14639    0.56265    1.000
    N231     N        0.15047    0.17438    0.51190    1.000
    N232     N        0.99674    0.17350    0.70939    1.000
    N233     N        0.05338    0.16985    0.66943    1.000
    Si234    Si       0.00310    0.14024    0.73668    1.000
    Si235    Si       0.05841    0.12820    0.68009    1.000
    N236     N        0.10992    0.17205    0.71189    1.000
    Si237    Si       0.13634    0.14396    0.73112    1.000
    Si238    Si       0.22202    0.14206    0.63939    1.000
    N239     N        0.11783    0.15734    0.64280    1.000
    N240     N        0.22462    0.12552    0.59901    1.000
    Si241    Si       0.14372    0.12412    0.66239    1.000
    N242     N        0.08430    0.18167    0.49476    1.000
    N243     N        0.01537    0.14675    0.77649    1.000
    N244     N        0.08026    0.16225    0.79879    1.000
    N245     N        0.01801    0.13637    0.84489    1.000
    Si246    Si       0.04243    0.17972    0.78428    1.000
    Si247    Si       0.99064    0.13923    0.81284    1.000
    N248     N        0.11034    0.17720    0.86231    1.000
    N249     N        0.18829    0.14714    0.85243    1.000
    Si250    Si       0.16507    0.13958    0.81664    1.000
    Si251    Si       0.20410    0.13964    0.75724    1.000
    N252     N        0.23230    0.16590    0.77228    1.000
    Si253    Si       0.11843    0.13503    0.86711    1.000
    Si254    Si       0.18914    0.17488    0.95456    1.000
    Si255    Si       0.19630    0.18193    0.87599    1.000
    N256     N        0.07477    0.16986    0.91870    1.000
    N257     N        0.02622    0.15155    0.96199    1.000
    Si258    Si       0.07258    0.12615    0.92092    1.000
    N259     N        0.23159    0.16298    0.95609    1.000
    N260     N        0.15811    0.14572    0.96505    1.000
    N261     N        0.14629    0.12599    0.89818    1.000
    N262     N        0.17023    0.16426    0.74798    1.000
    Si263    Si       0.09224    0.22293    0.08911    1.000
    Si264    Si       0.08027    0.21459    0.01609    1.000
    N265     N        0.07822    0.19412    0.05603    1.000
    N266     N        0.13477    0.21505    0.08929    1.000
    Si267    Si       0.21074    0.20553    0.02140    1.000
    N268     N        0.19606    0.22022    0.06028    1.000
    Si269    Si       0.21385    0.22073    0.09924    1.000
    Si270    Si       0.14746    0.18293    0.11569    1.000
    N271     N        0.98746    0.19644    0.07865    1.000
    Si272    Si       0.99598    0.18760    0.17651    1.000
    N273     N        0.07812    0.21275    0.12918    1.000
    N274     N        0.09056    0.20727    0.20335    1.000
    N275     N        0.00685    0.20354    0.13953    1.000
    Si276    Si       0.09616    0.19259    0.16350    1.000
    Si277    Si       0.03957    0.22989    0.13819    1.000
    Si278    Si       0.98630    0.23835    0.08799    1.000
    Si279    Si       0.17229    0.22166    0.16392    1.000
    N280     N        0.14380    0.18705    0.16175    1.000
    N281     N        0.20941    0.21896    0.18629    1.000
    N282     N        0.18181    0.23292    0.12401    1.000
    Si283    Si       0.21633    0.18687    0.21432    1.000
    Si284    Si       0.10771    0.18171    0.23287    1.000
    N285     N        0.06585    0.23022    0.30061    1.000
    N286     N        0.01848    0.21424    0.35784    1.000
    N287     N        0.01438    0.19368    0.26897    1.000
    Si288    Si       0.02944    0.23370    0.27692    1.000
    Si289    Si       0.07896    0.18871    0.30224    1.000
    Si290    Si       0.12016    0.22058    0.35173    1.000
    Si291    Si       0.19355    0.20079    0.35899    1.000
    N292     N        0.21372    0.20000    0.25518    1.000
    N293     N        0.13809    0.20531    0.25326    1.000
    N294     N        0.11703    0.19423    0.32033    1.000
    N295     N        0.22006    0.23609    0.35299    1.000
    N296     N        0.18466    0.18955    0.31737    1.000
    Si297    Si       0.14776    0.18496    0.29199    1.000
    N298     N        0.00939    0.20640    0.47313    1.000
    Si299    Si       0.04410    0.21851    0.44809    1.000
    N300     N        0.08907    0.21591    0.37922    1.000
    Si301    Si       0.05126    0.23365    0.37771    1.000
    Si302    Si       0.09740    0.18731    0.41208    1.000
    Si303    Si       0.15413    0.22821    0.41639    1.000
    N304     N        0.15525    0.21429    0.37539    1.000
    N305     N        0.12918    0.20100    0.43909    1.000
    N306     N        0.19690    0.22930    0.42400    1.000
    Si307    Si       0.21144    0.18847    0.42976    1.000
    Si308    Si       0.98474    0.24004    0.33971    1.000
    N309     N        0.05385    0.22754    0.54483    1.000
    Si310    Si       0.07854    0.22423    0.50981    1.000
    Si311    Si       0.01187    0.23319    0.55356    1.000
    Si312    Si       0.08345    0.21625    0.57423    1.000
    N313     N        0.98801    0.19655    0.56519    1.000
    N314     N        0.06467    0.21715    0.61634    1.000
    N315     N        0.11732    0.22853    0.52594    1.000
    N316     N        0.17634    0.22242    0.56141    1.000
    Si317    Si       0.14043    0.19793    0.54728    1.000
    Si318    Si       0.18931    0.19290    0.59065    1.000
    Si319    Si       0.21837    0.22869    0.54404    1.000
    N320     N        0.21789    0.20595    0.50598    1.000
    N321     N        0.22816    0.18838    0.57463    1.000
    N322     N        0.11710    0.23962    0.58970    1.000
    N323     N        0.07679    0.22157    0.69558    1.000
    N324     N        0.00114    0.20028    0.64131    1.000
    Si325    Si       0.03597    0.19871    0.70298    1.000
    Si326    Si       0.09343    0.20549    0.73255    1.000
    N327     N        0.01342    0.23605    0.69546    1.000
    Si328    Si       0.09835    0.18882    0.67279    1.000
    Si329    Si       0.03976    0.18508    0.63070    1.000
    Si330    Si       0.15578    0.18218    0.63994    1.000
    Si331    Si       0.23026    0.22324    0.65199    1.000
    N332     N        0.13462    0.21356    0.66109    1.000
    N333     N        0.18819    0.21150    0.63069    1.000
    Si334    Si       0.99478    0.24051    0.65257    1.000
    N335     N        0.05272    0.19575    0.74468    1.000
    N336     N        0.02536    0.20942    0.81239    1.000
    N337     N        0.09326    0.22703    0.81969    1.000
    Si338    Si       0.05225    0.23726    0.83287    1.000
    Si339    Si       0.10838    0.18733    0.82039    1.000
    N340     N        0.98880    0.22076    0.86973    1.000
    N341     N        0.14819    0.17874    0.80555    1.000
    N342     N        0.12293    0.22420    0.75894    1.000
    N343     N        0.19192    0.22374    0.77456    1.000
    Si344    Si       0.15821    0.19973    0.76801    1.000
    N345     N        0.18220    0.22030    0.86257    1.000
    Si346    Si       0.23092    0.20662    0.78577    1.000
    Si347    Si       0.04760    0.18641    0.94592    1.000
    N348     N        0.05198    0.20443    0.98594    1.000
    Si349    Si       0.01906    0.23674    0.89538    1.000
    N350     N        0.05676    0.22656    0.87705    1.000
    Si351    Si       0.09062    0.20164    0.89131    1.000
    N352     N        0.01951    0.21138    0.92875    1.000
    N353     N        0.11986    0.22873    0.91202    1.000
    Si354    Si       0.16319    0.22884    0.90221    1.000
    N355     N        0.17953    0.20030    0.99042    1.000
    N356     N        0.18138    0.19145    0.91663    1.000
    N357     N        0.11664    0.20406    0.99616    1.000
    Si358    Si       0.14892    0.23469    0.99180    1.000
    N359     N        0.09065    0.26341    0.07909    1.000
    Si360    Si       0.07674    0.28680    0.04535    1.000
    N361     N        0.06782    0.25752    0.01577    1.000
    N362     N        0.02323    0.25314    0.10379    1.000
    Si363    Si       0.02775    0.29793    0.09764    1.000
    N364     N        0.16207    0.28727    0.07831    1.000
    N365     N        0.14745    0.25168    0.03199    1.000
    Si366    Si       0.14761    0.29544    0.03852    1.000
    N367     N        0.15174    0.24904    0.19076    1.000
    N368     N        0.04438    0.25357    0.17386    1.000
    Si369    Si       0.02147    0.29339    0.23831    1.000
    N370     N        0.10863    0.26358    0.23663    1.000
    Si371    Si       0.02971    0.29381    0.16867    1.000
    Si372    Si       0.07185    0.24472    0.21242    1.000
    Si373    Si       0.14402    0.29038    0.18523    1.000
    Si374    Si       0.14583    0.24238    0.23434    1.000
    N375     N        0.16910    0.30013    0.15092    1.000
    Si376    Si       0.16076    0.24467    0.07316    1.000
    N377     N        0.04386    0.25588    0.24340    1.000
    N378     N        0.05875    0.27077    0.35556    1.000
    Si379    Si       0.08054    0.26509    0.31822    1.000
    N380     N        0.99679    0.25304    0.29995    1.000
    N381     N        0.07316    0.30042    0.29443    1.000
    Si382    Si       0.10042    0.29936    0.26055    1.000
    Si383    Si       0.14002    0.29646    0.45127    1.000
    N384     N        0.18238    0.26325    0.24955    1.000
    N385     N        0.12185    0.26102    0.33132    1.000
    Si386    Si       0.21567    0.27848    0.34306    1.000
    N387     N        0.19250    0.29760    0.31171    1.000
    Si388    Si       0.14846    0.29774    0.32328    1.000
    Si389    Si       0.22357    0.24411    0.25257    1.000
    Si390    Si       0.07007    0.28943    0.47869    1.000
    Si391    Si       0.99903    0.27341    0.41419    1.000
    N392     N        0.03373    0.24573    0.41625    1.000
    N393     N        0.06546    0.24569    0.47501    1.000
    N394     N        0.15178    0.28178    0.48816    1.000
    N395     N        0.20319    0.28816    0.38239    1.000
    Si396    Si       0.22261    0.24949    0.39611    1.000
    N397     N        0.14111    0.26904    0.41684    1.000
    N398     N        0.00414    0.25791    0.58959    1.000
    Si399    Si       0.03103    0.28708    0.60966    1.000
    N400     N        0.99822    0.25710    0.51923    1.000
    N401     N        0.07094    0.28393    0.59527    1.000
    N402     N        0.08661    0.28881    0.51862    1.000
    Si403    Si       0.00850    0.29896    0.51496    1.000
    Si404    Si       0.08941    0.25523    0.61983    1.000
    Si405    Si       0.12651    0.27044    0.52049    1.000
    N406     N        0.21267    0.27086    0.52659    1.000
    N407     N        0.15020    0.28865    0.55153    1.000
    Si408    Si       0.15515    0.25706    0.58345    1.000
    Si409    Si       0.18012    0.29862    0.51901    1.000
    Si410    Si       0.05426    0.25686    0.68033    1.000
    N411     N        0.02552    0.26976    0.64825    1.000
    N412     N        0.08876    0.27275    0.65794    1.000
    N413     N        0.05600    0.28908    0.70954    1.000
    Si414    Si       0.99674    0.25625    0.72787    1.000
    Si415    Si       0.19225    0.28508    0.69840    1.000
    Si416    Si       0.16407    0.24430    0.65668    1.000
    N417     N        0.16612    0.27446    0.62167    1.000
    N418     N        0.20205    0.24857    0.67811    1.000
    N419     N        0.19919    0.28478    0.74193    1.000
    N420     N        0.14921    0.27809    0.68790    1.000
    N421     N        0.03715    0.27647    0.83061    1.000
    Si422    Si       0.00187    0.27999    0.80458    1.000
    N423     N        0.08371    0.28421    0.78347    1.000
    N424     N        0.01682    0.27317    0.76257    1.000
    Si425    Si       0.05529    0.28950    0.75304    1.000
    Si426    Si       0.11327    0.25425    0.79036    1.000
    Si427    Si       0.18964    0.26629    0.78039    1.000
    N428     N        0.14898    0.27597    0.79812    1.000
    N429     N        0.21362    0.27204    0.81525    1.000
    N430     N        0.18525    0.26218    0.91864    1.000
    N431     N        0.00821    0.27734    0.90802    1.000
    N432     N        0.06646    0.26527    0.94402    1.000
    Si433    Si       0.04505    0.24947    0.97893    1.000
    N434     N        0.00544    0.26130    0.98700    1.000
    Si435    Si       0.04265    0.29702    0.92503    1.000
    Si436    Si       0.10914    0.26467    0.93408    1.000
    Si437    Si       0.16812    0.30065    0.90679    1.000
    N438     N        0.13563    0.27179    0.96966    1.000
    Si439    Si       0.22892    0.26441    0.91887    1.000
    N440     N        0.12574    0.29663    0.90924    1.000
    Si441    Si       0.21503    0.24145    0.84627    1.000
    Si442    Si       0.09682    0.35189    0.01304    1.000
    Si443    Si       0.02508    0.34532    0.04024    1.000
    N444     N        0.04435    0.31083    0.06073    1.000
    N445     N        0.99200    0.32261    0.02002    1.000
    N446     N        0.05489    0.35310    0.00959    1.000
    N447     N        0.10849    0.31478    0.03630    1.000
    N448     N        0.98897    0.31603    0.09286    1.000
    Si449    Si       0.21201    0.32941    0.01883    1.000
    N450     N        0.17057    0.31838    0.00956    1.000
    N451     N        0.20043    0.33275    0.10950    1.000
    Si452    Si       0.15976    0.31523    0.11122    1.000
    Si453    Si       0.23066    0.33426    0.07900    1.000
    N454     N        0.12168    0.33210    0.11504    1.000
    N455     N        0.04970    0.30820    0.13292    1.000
    Si456    Si       0.07522    0.34290    0.20152    1.000
    N457     N        0.04251    0.31305    0.20548    1.000
    Si458    Si       0.08879    0.32506    0.14017    1.000
    N459     N        0.10407    0.30660    0.17784    1.000
    N460     N        0.09494    0.33751    0.24217    1.000
    N461     N        0.21886    0.33774    0.18461    1.000
    Si462    Si       0.21054    0.31484    0.14940    1.000
    Si463    Si       0.18927    0.34705    0.21420    1.000
    N464     N        0.15901    0.31606    0.21484    1.000
    N465     N        0.22477    0.30122    0.04796    1.000
    N466     N        0.02680    0.33161    0.34146    1.000
    N467     N        0.01414    0.31964    0.27130    1.000
    Si468    Si       0.04047    0.33145    0.30090    1.000
    Si469    Si       0.21891    0.32590    0.29452    1.000
    N470     N        0.19954    0.33821    0.25744    1.000
    N471     N        0.14448    0.31889    0.35975    1.000
    N472     N        0.13711    0.30668    0.28356    1.000
    Si473    Si       0.12189    0.35322    0.37342    1.000
    Si474    Si       0.99327    0.33980    0.36907    1.000
    Si475    Si       0.09103    0.34737    0.42698    1.000
    Si476    Si       0.04940    0.31128    0.37252    1.000
    N477     N        0.03004    0.30558    0.47637    1.000
    N478     N        0.09925    0.31357    0.45304    1.000
    N479     N        0.08375    0.33412    0.38518    1.000
    Si480    Si       0.02649    0.33418    0.44286    1.000
    N481     N        0.01890    0.31401    0.40333    1.000
    N482     N        0.99094    0.35539    0.44946    1.000
    N483     N        0.20908    0.31947    0.48686    1.000
    Si484    Si       0.21186    0.32600    0.44284    1.000
    N485     N        0.16973    0.32430    0.42942    1.000
    Si486    Si       0.17051    0.30368    0.25578    1.000
    Si487    Si       0.16473    0.30000    0.39373    1.000
    N488     N        0.03276    0.31169    0.55124    1.000
    Si489    Si       0.99627    0.33059    0.57275    1.000
    Si490    Si       0.07521    0.30417    0.55722    1.000
    N491     N        0.10536    0.33657    0.56470    1.000
    N492     N        0.01354    0.32672    0.61374    1.000
    N493     N        0.17495    0.34049    0.60094    1.000
    Si494    Si       0.14864    0.33264    0.56605    1.000
    N495     N        0.17717    0.34102    0.53474    1.000
    Si496    Si       0.19414    0.35858    0.49911    1.000
    Si497    Si       0.05758    0.33227    0.70793    1.000
    N498     N        0.03746    0.35283    0.67691    1.000
    Si499    Si       0.00736    0.35483    0.64480    1.000
    N500     N        0.10055    0.33475    0.70644    1.000
    N501     N        0.19700    0.31932    0.66863    1.000
    Si502    Si       0.11468    0.30319    0.67982    1.000
    Si503    Si       0.16772    0.31553    0.63680    1.000
    N504     N        0.12943    0.33257    0.64983    1.000
    N505     N        0.05256    0.34634    0.81706    1.000
    Si506    Si       0.07005    0.30555    0.82306    1.000
    Si507    Si       0.99638    0.31731    0.75025    1.000
    N508     N        0.04021    0.33213    0.74864    1.000
    N509     N        0.10764    0.31209    0.84488    1.000
    Si510    Si       0.20539    0.33241    0.84182    1.000
    N511     N        0.17369    0.33915    0.81019    1.000
    N512     N        0.22563    0.34362    0.75523    1.000
    Si513    Si       0.14878    0.30868    0.82848    1.000
    N514     N        0.17724    0.30953    0.86461    1.000
    Si515    Si       0.18643    0.35586    0.76959    1.000
    Si516    Si       0.14886    0.31307    0.97055    1.000
    N517     N        0.06185    0.32000    0.89561    1.000
    Si518    Si       0.10185    0.32459    0.88711    1.000
    N519     N        0.02568    0.32080    0.95822    1.000
    Si520    Si       0.99562    0.30309    0.98183    1.000
    N521     N        0.17946    0.32487    0.94075    1.000
    Si522    Si       0.22154    0.33691    0.94561    1.000
    N523     N        0.11718    0.34272    0.97491    1.000
    N524     N        0.00896    0.38373    0.05338    1.000
    N525     N        0.09867    0.39781    0.10813    1.000
    Si526    Si       0.10523    0.40863    0.06472    1.000
    N527     N        0.11153    0.39034    0.02647    1.000
    N528     N        0.22309    0.36323    0.04791    1.000
    Si529    Si       0.23180    0.40418    0.03446    1.000
    Si530    Si       0.13785    0.41132    0.11769    1.000
    N531     N        0.06145    0.38195    0.22021    1.000
    Si532    Si       0.07432    0.39725    0.14226    1.000
    N533     N        0.07494    0.36014    0.16120    1.000
    N534     N        0.01503    0.41293    0.19113    1.000
    Si535    Si       0.21391    0.41238    0.19603    1.000
    N536     N        0.17871    0.38856    0.20824    1.000
    N537     N        0.22627    0.41341    0.99202    1.000
    Si538    Si       0.08197    0.37501    0.25644    1.000
    N539     N        0.05311    0.37141    0.28863    1.000
    Si540    Si       0.04305    0.40753    0.30874    1.000
    N541     N        0.05779    0.40792    0.34934    1.000
    Si542    Si       0.01622    0.40715    0.36672    1.000
    N543     N        0.10750    0.40725    0.27153    1.000
    N544     N        0.00133    0.41284    0.32228    1.000
    N545     N        0.12519    0.38688    0.34562    1.000
    Si546    Si       0.13360    0.41216    0.30473    1.000
    N547     N        0.17171    0.41485    0.42565    1.000
    Si548    Si       0.05920    0.38837    0.48541    1.000
    N549     N        0.05708    0.36513    0.44846    1.000
    N550     N        0.99352    0.37719    0.38577    1.000
    Si551    Si       0.13037    0.41691    0.42155    1.000
    Si552    Si       0.16737    0.37050    0.43323    1.000
    N553     N        0.21470    0.37081    0.43613    1.000
    Si554    Si       0.13194    0.40071    0.49148    1.000
    N555     N        0.12567    0.37285    0.41366    1.000
    N556     N        0.15943    0.37175    0.47653    1.000
    Si557    Si       0.21152    0.41525    0.44151    1.000
    N558     N        0.22534    0.35817    0.32027    1.000
    Si559    Si       0.09680    0.37580    0.54911    1.000
    Si560    Si       0.02309    0.39417    0.55002    1.000
    N561     N        0.09585    0.38305    0.50760    1.000
    N562     N        0.02416    0.37978    0.50847    1.000
    N563     N        0.06093    0.39268    0.56647    1.000
    Si564    Si       0.08369    0.41238    0.59916    1.000
    Si565    Si       0.11614    0.36960    0.72698    1.000
    N566     N        0.11979    0.40080    0.57530    1.000
    N567     N        0.18978    0.39738    0.57457    1.000
    N568     N        0.22720    0.37738    0.51948    1.000
    Si569    Si       0.18286    0.38137    0.61474    1.000
    Si570    Si       0.21303    0.36307    0.55819    1.000
    N571     N        0.01619    0.39837    0.63734    1.000
    N572     N        0.08516    0.39115    0.63794    1.000
    Si573    Si       0.04858    0.39474    0.66529    1.000
    Si574    Si       0.04971    0.41054    0.73976    1.000
    N575     N        0.03578    0.41917    0.69907    1.000
    N576     N        0.23385    0.37576    0.69718    1.000
    N577     N        0.22007    0.38683    0.63395    1.000
    N578     N        0.15507    0.39957    0.64098    1.000
    N579     N        0.12441    0.39772    0.69407    1.000
    Si580    Si       0.12278    0.37491    0.65503    1.000
    Si581    Si       0.22502    0.41066    0.67304    1.000
    N582     N        0.15112    0.35741    0.74734    1.000
    N583     N        0.02217    0.39539    0.76819    1.000
    Si584    Si       0.03332    0.37597    0.84214    1.000
    N585     N        0.04788    0.41497    0.82753    1.000
    N586     N        0.08239    0.38334    0.75216    1.000
    Si587    Si       0.05156    0.36310    0.77743    1.000
    N588     N        0.99080    0.36679    0.83923    1.000
    Si589    Si       0.17131    0.38132    0.82591    1.000
    N590     N        0.13158    0.39188    0.83670    1.000
    N591     N        0.19396    0.39349    0.78982    1.000
    N592     N        0.19860    0.37342    0.85787    1.000
    N593     N        0.06683    0.37824    0.94598    1.000
    N594     N        0.00078    0.38304    0.97303    1.000
    Si595    Si       0.05086    0.40097    0.91269    1.000
    N596     N        0.02661    0.37917    0.88578    1.000
    Si597    Si       0.03718    0.36045    0.97061    1.000
    Si598    Si       0.11012    0.36983    0.94270    1.000
    Si599    Si       0.12198    0.39810    0.87776    1.000
    N600     N        0.11994    0.36180    0.90132    1.000
    Si601    Si       0.22331    0.39176    0.88772    1.000
    N602     N        0.22539    0.37500    0.92716    1.000
    N603     N        0.13051    0.40600    0.95559    1.000
    Si604    Si       0.05968    0.45367    0.02347    1.000
    N605     N        0.02264    0.43614    0.01302    1.000
    N606     N        0.07244    0.43611    0.06063    1.000
    N607     N        0.01302    0.46000    0.07754    1.000
    Si608    Si       0.04972    0.44601    0.09651    1.000
    Si609    Si       0.00212    0.42517    0.04914    1.000
    N610     N        0.14445    0.42514    0.07857    1.000
    N611     N        0.21344    0.43502    0.05783    1.000
    Si612    Si       0.17196    0.44485    0.05064    1.000
    N613     N        0.16295    0.43170    0.01113    1.000
    Si614    Si       0.12539    0.41907    0.99637    1.000
    N615     N        0.03058    0.47273    0.17283    1.000
    N616     N        0.03926    0.41952    0.12822    1.000
    N617     N        0.07118    0.45128    0.23467    1.000
    Si618    Si       0.00896    0.43766    0.15476    1.000
    N619     N        0.08758    0.42500    0.17336    1.000
    Si620    Si       0.05592    0.42240    0.20411    1.000
    N621     N        0.20756    0.44019    0.22771    1.000
    Si622    Si       0.12344    0.44903    0.17876    1.000
    Si623    Si       0.16761    0.41955    0.23523    1.000
    N624     N        0.13722    0.44255    0.21979    1.000
    N625     N        0.15226    0.44130    0.14610    1.000
    Si626    Si       0.18925    0.46452    0.14996    1.000
    Si627    Si       0.23248    0.47344    0.23537    1.000
    N628     N        0.22025    0.43565    0.16038    1.000
    N629     N        0.00823    0.47484    0.24499    1.000
    N630     N        0.04473    0.45028    0.29732    1.000
    Si631    Si       0.01415    0.46166    0.33301    1.000
    Si632    Si       0.09812    0.41940    0.35470    1.000
    Si633    Si       0.10849    0.44753    0.25308    1.000
    N634     N        0.21396    0.43164    0.48257    1.000
    N635     N        0.16848    0.41791    0.27935    1.000
    N636     N        0.11665    0.44575    0.32682    1.000
    N637     N        0.23366    0.42909    0.29828    1.000
    Si638    Si       0.19858    0.44967    0.28759    1.000
    N639     N        0.17603    0.46973    0.31666    1.000
    N640     N        0.11474    0.42680    0.46064    1.000
    N641     N        0.10742    0.43967    0.39137    1.000
    N642     N        0.00849    0.44857    0.37484    1.000
    Si643    Si       0.08407    0.45563    0.46784    1.000
    N644     N        0.05228    0.43206    0.48696    1.000
    Si645    Si       0.23423    0.47257    0.39745    1.000
    N646     N        0.01349    0.43574    0.54912    1.000
    Si647    Si       0.02194    0.45292    0.50855    1.000
    N648     N        0.02098    0.46115    0.61183    1.000
    N649     N        0.09100    0.45453    0.60271    1.000
    Si650    Si       0.99203    0.46162    0.57836    1.000
    N651     N        0.15902    0.46223    0.58417    1.000
    Si652    Si       0.18533    0.44941    0.50968    1.000
    N653     N        0.22307    0.45992    0.61107    1.000
    N654     N        0.21134    0.46542    0.54080    1.000
    N655     N        0.15471    0.42153    0.52134    1.000
    Si656    Si       0.15697    0.42293    0.56594    1.000
    Si657    Si       0.12887    0.47347    0.61168    1.000
    Si658    Si       0.99572    0.43583    0.63285    1.000
    Si659    Si       0.00453    0.44782    0.70422    1.000
    Si660    Si       0.15163    0.42673    0.67454    1.000
    N661     N        0.14174    0.46408    0.65250    1.000
    Si662    Si       0.19076    0.46540    0.72331    1.000
    N663     N        0.19348    0.43334    0.69235    1.000
    Si664    Si       0.03242    0.44095    0.79626    1.000
    Si665    Si       0.07093    0.44695    0.85503    1.000
    N666     N        0.05419    0.44771    0.75818    1.000
    N667     N        0.05731    0.47603    0.81673    1.000
    N668     N        0.10948    0.47013    0.84966    1.000
    Si669    Si       0.21889    0.42914    0.77881    1.000
    Si670    Si       0.21950    0.46463    0.84417    1.000
    N671     N        0.17649    0.46509    0.83284    1.000
    N672     N        0.18776    0.45529    0.76416    1.000
    Si673    Si       0.14734    0.46588    0.86633    1.000
    N674     N        0.03103    0.43107    0.93687    1.000
    N675     N        0.04319    0.46638    0.87903    1.000
    Si676    Si       0.04357    0.46924    0.92179    1.000
    Si677    Si       0.00923    0.42611    0.97117    1.000
    N678     N        0.19303    0.43941    0.94195    1.000
    N679     N        0.14066    0.47274    0.95256    1.000
    Si680    Si       0.19460    0.44443    0.98413    1.000
    Si681    Si       0.15093    0.43508    0.93283    1.000
    N682     N        0.14990    0.42913    0.89051    1.000
    N683     N        0.23071    0.43770    0.87898    1.000
    Si684    Si       0.22360    0.45572    0.91735    1.000
    N685     N        0.08279    0.41550    0.88462    1.000
    N686     N        0.09419    0.44960    0.99606    1.000
    N687     N        0.05237    0.49547    0.02456    1.000
    Si688    Si       0.08355    0.52157    0.03282    1.000
    Si689    Si       0.99616    0.49943    0.08414    1.000
    N690     N        0.10298    0.51863    0.07054    1.000
    Si691    Si       0.06966    0.52589    0.10062    1.000
    N692     N        0.02774    0.52920    0.08419    1.000
    N693     N        0.06839    0.48165    0.11293    1.000
    Si694    Si       0.02441    0.51927    0.00280    1.000
    N695     N        0.16272    0.48810    0.05229    1.000
    Si696    Si       0.20591    0.52326    0.11037    1.000
    Si697    Si       0.14607    0.52630    0.06122    1.000
    N698     N        0.20754    0.48083    0.11426    1.000
    Si699    Si       0.00808    0.49284    0.20514    1.000
    N700     N        0.10445    0.48806    0.17440    1.000
    Si701    Si       0.06706    0.49156    0.15479    1.000
    N702     N        0.02957    0.52993    0.21145    1.000
    N703     N        0.06180    0.53395    0.14706    1.000
    N704     N        0.23557    0.50893    0.20838    1.000
    Si705    Si       0.20269    0.52732    0.18576    1.000
    N706     N        0.17430    0.49720    0.17497    1.000
    N707     N        0.12865    0.53118    0.22346    1.000
    Si708    Si       0.13439    0.51691    0.18209    1.000
    N709     N        0.10798    0.51661    0.99624    1.000
    N710     N        0.03486    0.50123    0.34158    1.000
    N711     N        0.06241    0.51507    0.26795    1.000
    Si712    Si       0.00516    0.52268    0.31672    1.000
    Si713    Si       0.10473    0.52203    0.26048    1.000
    N714     N        0.21785    0.52530    0.33557    1.000
    N715     N        0.21760    0.48723    0.27433    1.000
    Si716    Si       0.21866    0.52530    0.29138    1.000
    N717     N        0.14004    0.52558    0.33190    1.000
    Si718    Si       0.13526    0.48389    0.31570    1.000
    N719     N        0.12334    0.48533    0.27403    1.000
    Si720    Si       0.20345    0.48501    0.34590    1.000
    Si721    Si       0.05427    0.52861    0.37022    1.000
    N722     N        0.99760    0.48651    0.43624    1.000
    N723     N        0.09441    0.51733    0.38055    1.000
    Si724    Si       0.03669    0.50181    0.43829    1.000
    N725     N        0.09884    0.49006    0.48924    1.000
    Si726    Si       0.10244    0.48145    0.40432    1.000
    N727     N        0.04322    0.53320    0.46803    1.000
    N728     N        0.13801    0.48994    0.43203    1.000
    N729     N        0.19266    0.48610    0.38754    1.000
    Si730    Si       0.17360    0.51081    0.41729    1.000
    N731     N        0.20157    0.52632    0.44462    1.000
    Si732    Si       0.13742    0.50438    0.47257    1.000
    N733     N        0.17315    0.48729    0.49170    1.000
    Si734    Si       0.20587    0.51556    0.48594    1.000
    N735     N        0.98258    0.48365    0.31171    1.000
    N736     N        0.03317    0.53293    0.40749    1.000
    Si737    Si       0.04598    0.47423    0.26278    1.000
    N738     N        0.06958    0.47621    0.43286    1.000
    N739     N        0.05624    0.51251    0.58743    1.000
    Si740    Si       0.00847    0.51824    0.53993    1.000
    N741     N        0.03583    0.49208    0.52070    1.000
    Si742    Si       0.06909    0.51686    0.50189    1.000
    Si743    Si       0.05865    0.48122    0.61621    1.000
    N744     N        0.20632    0.52350    0.58816    1.000
    N745     N        0.13324    0.51738    0.61715    1.000
    Si746    Si       0.19876    0.47928    0.58188    1.000
    N747     N        0.08469    0.50093    0.72391    1.000
    Si748    Si       0.08209    0.52201    0.68423    1.000
    N749     N        0.06741    0.49272    0.65622    1.000
    Si750    Si       0.01473    0.52528    0.69516    1.000
    N751     N        0.02003    0.48634    0.71352    1.000
    Si752    Si       0.23462    0.54090    0.61793    1.000
    N753     N        0.18216    0.52637    0.66788    1.000
    N754     N        0.22300    0.49525    0.71681    1.000
    Si755    Si       0.22121    0.52273    0.68543    1.000
    Si756    Si       0.14644    0.50275    0.67368    1.000
    N757     N        0.15372    0.48680    0.71358    1.000
    N758     N        0.12063    0.53714    0.68363    1.000
    N759     N        0.00888    0.52137    0.84410    1.000
    N760     N        0.03288    0.51609    0.77224    1.000
    Si761    Si       0.04133    0.51653    0.81493    1.000
    Si762    Si       0.09752    0.49500    0.81668    1.000
    N763     N        0.08117    0.53521    0.82522    1.000
    Si764    Si       0.12498    0.50243    0.74311    1.000
    Si765    Si       0.16711    0.48130    0.79280    1.000
    N766     N        0.18558    0.52096    0.78982    1.000
    N767     N        0.22622    0.50773    0.84640    1.000
    N768     N        0.12420    0.48741    0.78398    1.000
    Si769    Si       0.22304    0.53350    0.81051    1.000
    Si770    Si       0.10429    0.48272    0.97088    1.000
    Si771    Si       0.00935    0.49336    0.87518    1.000
    N772     N        0.07548    0.49107    0.93941    1.000
    N773     N        0.01923    0.50696    0.91663    1.000
    Si774    Si       0.05456    0.53006    0.93425    1.000
    N775     N        0.99374    0.49611    0.98055    1.000
    Si776    Si       0.23255    0.51159    0.99002    1.000
    N777     N        0.19792    0.48889    0.98041    1.000
    Si778    Si       0.17621    0.49794    0.94282    1.000
    N779     N        0.16651    0.49542    0.89421    1.000
    Si780    Si       0.20044    0.51713    0.88285    1.000
    N781     N        0.22204    0.49820    0.91853    1.000
    Si782    Si       0.04974    0.48824    0.74314    1.000
    N783     N        0.06854    0.56483    0.03499    1.000
    N784     N        0.07917    0.57178    0.10110    1.000
    Si785    Si       0.02750    0.56285    0.05721    1.000
    N786     N        0.00184    0.54888    0.02383    1.000
    Si787    Si       0.08580    0.59396    0.06492    1.000
    N788     N        0.15255    0.55646    0.02825    1.000
    Si789    Si       0.22711    0.57873    0.03441    1.000
    N790     N        0.20069    0.54776    0.14739    1.000
    N791     N        0.18767    0.55565    0.21296    1.000
    N792     N        0.99689    0.56713    0.16708    1.000
    Si793    Si       0.08936    0.57434    0.14311    1.000
    Si794    Si       0.03640    0.55450    0.17684    1.000
    N795     N        0.06853    0.58501    0.18280    1.000
    N796     N        0.16750    0.54008    0.09647    1.000
    Si797    Si       0.16333    0.56306    0.13291    1.000
    N798     N        0.12778    0.55048    0.15526    1.000
    Si799    Si       0.20770    0.59223    0.21670    1.000
    N800     N        0.23556    0.53681    0.02492    1.000
    N801     N        0.04484    0.56588    0.34937    1.000
    Si802    Si       0.00497    0.57957    0.35660    1.000
    Si803    Si       0.03489    0.54668    0.25205    1.000
    N804     N        0.00209    0.54197    0.27895    1.000
    N805     N        0.05479    0.58499    0.25029    1.000
    N806     N        0.11273    0.58638    0.37005    1.000
    N807     N        0.12243    0.56179    0.27821    1.000
    Si808    Si       0.15629    0.55742    0.30798    1.000
    N809     N        0.18379    0.54627    0.27791    1.000
    Si810    Si       0.15102    0.57280    0.44203    1.000
    Si811    Si       0.02699    0.56346    0.43825    1.000
    N812     N        0.00613    0.59034    0.39721    1.000
    N813     N        0.17033    0.59131    0.32871    1.000
    N814     N        0.18913    0.59256    0.45254    1.000
    Si815    Si       0.21959    0.56405    0.43569    1.000
    Si816    Si       0.12699    0.54456    0.37304    1.000
    N817     N        0.15468    0.54904    0.40492    1.000
    N818     N        0.23534    0.56768    0.39606    1.000
    N819     N        0.13998    0.54666    0.47620    1.000
    Si820    Si       0.15810    0.56164    0.24494    1.000
    N821     N        0.09432    0.57414    0.58908    1.000
    N822     N        0.02769    0.55728    0.54479    1.000
    Si823    Si       0.06697    0.54847    0.56327    1.000
    N824     N        0.09064    0.54275    0.52650    1.000
    N825     N        0.00580    0.56763    0.62315    1.000
    Si826    Si       0.19245    0.55335    0.55693    1.000
    Si827    Si       0.13369    0.55514    0.59688    1.000
    N828     N        0.20216    0.55003    0.51341    1.000
    Si829    Si       0.13153    0.55881    0.51881    1.000
    N830     N        0.15078    0.54901    0.55614    1.000
    N831     N        0.24144    0.55472    0.71010    1.000
    Si832    Si       0.12900    0.57227    0.71058    1.000
    Si833    Si       0.05602    0.59181    0.69121    1.000
    N834     N        0.04964    0.54935    0.68595    1.000
    N835     N        0.99549    0.54927    0.72551    1.000
    N836     N        0.16085    0.58306    0.62106    1.000
    N837     N        0.16602    0.58957    0.69390    1.000
    N838     N        0.22363    0.57164    0.64594    1.000
    Si839    Si       0.18083    0.57060    0.65682    1.000
    N840     N        0.20829    0.59350    0.56588    1.000
    Si841    Si       0.19541    0.59099    0.49629    1.000
    Si842    Si       0.09563    0.57654    0.82296    1.000
    Si843    Si       0.16839    0.57027    0.92350    1.000
    N844     N        0.13930    0.57023    0.81834    1.000
    Si845    Si       0.16035    0.55653    0.78229    1.000
    N846     N        0.21231    0.57410    0.82357    1.000
    N847     N        0.18373    0.58648    0.76290    1.000
    Si848    Si       0.14398    0.58840    0.85766    1.000
    N849     N        0.13090    0.54566    0.74958    1.000
    Si850    Si       0.21005    0.59247    0.86416    1.000
    N851     N        0.06713    0.56246    0.90896    1.000
    N852     N        0.04769    0.54478    0.97362    1.000
    Si853    Si       0.09577    0.59335    0.90187    1.000
    Si854    Si       0.07034    0.57636    0.99177    1.000
    N855     N        0.11139    0.58288    0.97926    1.000
    N856     N        0.16370    0.53952    0.95350    1.000
    Si857    Si       0.13834    0.54669    0.98822    1.000
    N858     N        0.19648    0.56117    0.89017    1.000
    N859     N        0.13458    0.57553    0.89946    1.000
    N860     N        0.07377    0.59422    0.79264    1.000
    Si861    Si       0.03563    0.62736    0.02735    1.000
    N862     N        0.07390    0.63081    0.04725    1.000
    N863     N        0.01474    0.60330    0.05955    1.000
    Si864    Si       0.14447    0.63802    0.23602    1.000
    Si865    Si       0.19500    0.62112    0.09526    1.000
    Si866    Si       0.12800    0.62681    0.10765    1.000
    N867     N        0.12717    0.60371    0.07101    1.000
    N868     N        0.15612    0.62396    0.00452    1.000
    N869     N        0.23280    0.61716    0.11519    1.000
    N870     N        0.19733    0.60111    0.05619    1.000
    Si871    Si       0.15786    0.59792    0.04036    1.000
    N872     N        0.23036    0.60325    0.99699    1.000
    N873     N        0.10020    0.62008    0.13875    1.000
    Si874    Si       0.07151    0.61086    0.21789    1.000
    Si875    Si       0.07316    0.64769    0.15559    1.000
    N876     N        0.10627    0.61741    0.24139    1.000
    N877     N        0.06012    0.64761    0.19752    1.000
    N878     N        0.04084    0.64921    0.12862    1.000
    N879     N        0.17099    0.60495    0.24274    1.000
    N880     N        0.16306    0.60444    0.12165    1.000
    N881     N        0.21101    0.62261    0.18685    1.000
    Si882    Si       0.23539    0.63720    0.15404    1.000
    N883     N        0.08234    0.61381    0.31113    1.000
    N884     N        0.05537    0.63114    0.36675    1.000
    N885     N        0.99127    0.61371    0.33432    1.000
    Si886    Si       0.08980    0.59427    0.27512    1.000
    N887     N        0.23660    0.63351    0.41843    1.000
    Si888    Si       0.07599    0.59588    0.35147    1.000
    Si889    Si       0.18827    0.62269    0.35031    1.000
    N890     N        0.22995    0.62349    0.34886    1.000
    Si891    Si       0.08686    0.62112    0.44842    1.000
    Si892    Si       0.03582    0.62405    0.40699    1.000
    N893     N        0.09524    0.63297    0.48781    1.000
    N894     N        0.00799    0.64807    0.42860    1.000
    N895     N        0.05594    0.59500    0.43561    1.000
    Si896    Si       0.19484    0.62956    0.42751    1.000
    Si897    Si       0.13154    0.61895    0.39203    1.000
    N898     N        0.12377    0.60645    0.43269    1.000
    N899     N        0.17504    0.62362    0.38972    1.000
    Si900    Si       0.06373    0.65177    0.32718    1.000
    Si901    Si       0.08146    0.61472    0.58583    1.000
    N902     N        0.09798    0.62739    0.54898    1.000
    N903     N        0.03667    0.61329    0.58281    1.000
    N904     N        0.03143    0.62853    0.51992    1.000
    N905     N        0.09464    0.64417    0.61359    1.000
    Si906    Si       0.07036    0.64560    0.52028    1.000
    Si907    Si       0.01706    0.59961    0.54637    1.000
    Si908    Si       0.99625    0.65297    0.50677    1.000
    N909     N        0.23476    0.60929    0.50225    1.000
    N910     N        0.16290    0.64757    0.57669    1.000
    Si911    Si       0.12737    0.63090    0.51782    1.000
    Si912    Si       0.18456    0.61275    0.59733    1.000
    Si913    Si       0.23086    0.62282    0.54326    1.000
    N914     N        0.15675    0.60136    0.51170    1.000
    N915     N        0.21242    0.63386    0.62344    1.000
    Si916    Si       0.01763    0.60938    0.62268    1.000
    N917     N        0.05168    0.61237    0.65282    1.000
    N918     N        0.03436    0.60988    0.72322    1.000
    N919     N        0.09685    0.60014    0.71532    1.000
    Si920    Si       0.10657    0.64421    0.71851    1.000
    Si921    Si       0.17822    0.61376    0.72964    1.000
    N922     N        0.15042    0.64679    0.72234    1.000
    N923     N        0.21609    0.63727    0.73883    1.000
    Si924    Si       0.04801    0.62132    0.81316    1.000
    N925     N        0.01634    0.62572    0.78286    1.000
    N926     N        0.10331    0.60550    0.85763    1.000
    N927     N        0.03351    0.60583    0.85052    1.000
    Si928    Si       0.06881    0.60790    0.75218    1.000
    Si929    Si       0.10106    0.64908    0.85379    1.000
    N930     N        0.08552    0.64948    0.75601    1.000
    Si931    Si       0.21202    0.60202    0.79063    1.000
    N932     N        0.19315    0.64152    0.80250    1.000
    N933     N        0.17557    0.61720    0.86104    1.000
    Si934    Si       0.17966    0.65661    0.84079    1.000
    N935     N        0.04867    0.61293    0.98801    1.000
    N936     N        0.02665    0.62316    0.92649    1.000
    Si937    Si       0.05684    0.63624    0.95261    1.000
    N938     N        0.09599    0.62501    0.93202    1.000
    Si939    Si       0.01529    0.62560    0.88321    1.000
    Si940    Si       0.99018    0.60026    0.93257    1.000
    Si941    Si       0.19400    0.61864    0.98049    1.000
    Si942    Si       0.12947    0.62122    0.96294    1.000
    N943     N        0.17083    0.60678    0.94674    1.000
    Si944    Si       0.00364    0.63396    0.74264    1.000
    N945     N        0.07432    0.70131    0.03671    1.000
    Si946    Si       0.03144    0.70082    0.03313    1.000
    Si947    Si       0.09780    0.66587    0.04952    1.000
    N948     N        0.01032    0.65993    0.03205    1.000
    Si949    Si       0.10112    0.70026    0.11747    1.000
    N950     N        0.10902    0.66857    0.09107    1.000
    N951     N        0.13854    0.67805    0.03605    1.000
    Si952    Si       0.15180    0.69088    0.07790    1.000
    Si953    Si       0.21692    0.69195    0.08026    1.000
    N954     N        0.18338    0.66283    0.09272    1.000
    Si955    Si       0.15846    0.66882    0.99767    1.000
    Si956    Si       0.00505    0.66949    0.13121    1.000
    Si957    Si       0.06193    0.68637    0.21644    1.000
    N958     N        0.09563    0.68425    0.15581    1.000
    N959     N        0.15032    0.66254    0.19834    1.000
    N960     N        0.20307    0.67335    0.23546    1.000
    N961     N        0.21418    0.67694    0.16002    1.000
    Si962    Si       0.19412    0.66458    0.19576    1.000
    Si963    Si       0.12674    0.69532    0.18355    1.000
    N964     N        0.02612    0.71085    0.20943    1.000
    N965     N        0.09980    0.70762    0.21509    1.000
    N966     N        0.01921    0.71608    0.99531    1.000
    N967     N        0.06385    0.67613    0.25847    1.000
    Si968    Si       0.02672    0.69154    0.27448    1.000
    N969     N        0.02802    0.66729    0.31159    1.000
    N970     N        0.09946    0.67493    0.32154    1.000
    Si971    Si       0.10239    0.68616    0.27870    1.000
    Si972    Si       0.99526    0.65882    0.33715    1.000
    N973     N        0.23642    0.66707    0.29446    1.000
    Si974    Si       0.13546    0.67667    0.34489    1.000
    Si975    Si       0.20809    0.68697    0.32303    1.000
    N976     N        0.14041    0.66964    0.26653    1.000
    Si977    Si       0.17631    0.69586    0.26167    1.000
    N978     N        0.17486    0.66164    0.33608    1.000
    N979     N        0.23247    0.70162    0.35629    1.000
    N980     N        0.00358    0.68240    0.36961    1.000
    Si981    Si       0.10032    0.68328    0.41460    1.000
    Si982    Si       0.03505    0.67793    0.44532    1.000
    N983     N        0.02048    0.68341    0.48661    1.000
    N984     N        0.06854    0.65746    0.42917    1.000
    Si985    Si       0.99224    0.71045    0.40047    1.000
    N986     N        0.12211    0.66078    0.38434    1.000
    N987     N        0.12045    0.69670    0.44999    1.000
    N988     N        0.18508    0.66735    0.44852    1.000
    Si989    Si       0.15277    0.68034    0.47526    1.000
    Si990    Si       0.20324    0.70876    0.45172    1.000
    N991     N        0.07552    0.68928    0.52294    1.000
    Si992    Si       0.23690    0.65315    0.70311    1.000
    Si993    Si       0.11459    0.70355    0.53297    1.000
    N994     N        0.11874    0.70339    0.57852    1.000
    N995     N        0.21687    0.66593    0.53670    1.000
    Si996    Si       0.17586    0.67535    0.54413    1.000
    N997     N        0.14275    0.67208    0.51680    1.000
    Si998    Si       0.12976    0.66643    0.59873    1.000
    N999     N        0.21369    0.70303    0.61359    1.000
    N1000    N        0.03942    0.68383    0.64216    1.000
    Si1001   Si       0.99734    0.68033    0.63977    1.000
    N1002    N        0.09356    0.66429    0.68100    1.000
    N1003    N        0.99814    0.67287    0.72718    1.000
    N1004    N        0.14424    0.70830    0.69511    1.000
    Si1005   Si       0.12027    0.69238    0.66469    1.000
    N1006    N        0.20467    0.67265    0.68231    1.000
    N1007    N        0.15063    0.67532    0.63595    1.000
    Si1008   Si       0.17432    0.68165    0.71123    1.000
    Si1009   Si       0.19375    0.67159    0.63843    1.000
    Si1010   Si       0.06911    0.65105    0.64713    1.000
    Si1011   Si       0.07708    0.67931    0.78580    1.000
    Si1012   Si       0.04950    0.68301    0.85721    1.000
    N1013    N        0.04563    0.70880    0.77868    1.000
    N1014    N        0.06872    0.65953    0.82440    1.000
    N1015    N        0.11145    0.70424    0.78835    1.000
    Si1016   Si       0.19970    0.68095    0.78417    1.000
    N1017    N        0.13699    0.66992    0.84523    1.000
    Si1018   Si       0.13686    0.70659    0.82311    1.000
    N1019    N        0.19087    0.69842    0.74695    1.000
    N1020    N        0.18288    0.70312    0.81751    1.000
    N1021    N        0.01576    0.66884    0.87710    1.000
    N1022    N        0.08196    0.67115    0.88357    1.000
    Si1023   Si       0.10011    0.67287    0.92542    1.000
    N1024    N        0.06578    0.67981    0.95122    1.000
    N1025    N        0.00439    0.70816    0.93576    1.000
    N1026    N        0.20260    0.66094    0.98979    1.000
    N1027    N        0.20981    0.67564    0.86684    1.000
    N1028    N        0.13353    0.66712    0.96121    1.000
    Si1029   Si       0.21150    0.70455    0.98234    1.000
    N1030    N        0.12276    0.71200    0.91655    1.000
    N1031    N        0.16865    0.71355    0.98983    1.000
    Si1032   Si       0.03537    0.73532    0.10457    1.000
    N1033    N        0.07669    0.73521    0.10654    1.000
    Si1034   Si       0.09742    0.73585    0.02569    1.000
    N1035    N        0.01653    0.72072    0.06834    1.000
    Si1036   Si       0.10697    0.76520    0.09144    1.000
    Si1037   Si       0.23572    0.77191    0.03141    1.000
    N1038    N        0.12433    0.74752    0.05705    1.000
    Si1039   Si       0.16863    0.75765    0.05666    1.000
    N1040    N        0.14054    0.71624    0.11208    1.000
    N1041    N        0.18630    0.71721    0.06317    1.000
    N1042    N        0.21879    0.73454    0.19189    1.000
    Si1043   Si       0.01397    0.74845    0.23131    1.000
    N1044    N        0.00014    0.76088    0.18204    1.000
    Si1045   Si       0.99733    0.71700    0.17487    1.000
    N1046    N        0.01671    0.71220    0.13530    1.000
    Si1047   Si       0.21887    0.71751    0.14719    1.000
    Si1048   Si       0.12071    0.73949    0.23652    1.000
    N1049    N        0.16285    0.72834    0.23575    1.000
    N1050    N        0.19712    0.75052    0.13152    1.000
    Si1051   Si       0.17885    0.74751    0.20184    1.000
    N1052    N        0.14823    0.73283    0.17513    1.000
    Si1053   Si       0.15389    0.74971    0.13592    1.000
    N1054    N        0.21846    0.75043    0.99650    1.000
    N1055    N        0.02857    0.73628    0.27166    1.000
    N1056    N        0.10486    0.73018    0.27647    1.000
    N1057    N        0.08889    0.76148    0.34096    1.000
    Si1058   Si       0.10149    0.76384    0.30017    1.000
    Si1059   Si       0.12667    0.73725    0.46655    1.000
    N1060    N        0.19827    0.76318    0.34949    1.000
    Si1061   Si       0.16798    0.74529    0.32361    1.000
    N1062    N        0.14218    0.72002    0.34826    1.000
    N1063    N        0.18753    0.71606    0.29791    1.000
    Si1064   Si       0.05855    0.74485    0.42385    1.000
    N1065    N        0.08638    0.72044    0.39791    1.000
    N1066    N        0.08687    0.75876    0.45453    1.000
    N1067    N        0.02615    0.71459    0.42533    1.000
    Si1068   Si       0.11311    0.74179    0.37205    1.000
    N1069    N        0.16935    0.72065    0.47965    1.000
    Si1070   Si       0.21858    0.73603    0.37773    1.000
    N1071    N        0.19376    0.73086    0.41450    1.000
    N1072    N        0.02345    0.76914    0.33363    1.000
    N1073    N        0.13583    0.76891    0.39670    1.000
    N1074    N        0.01199    0.71833    0.54239    1.000
    Si1075   Si       0.01151    0.76444    0.54290    1.000
    N1076    N        0.04446    0.75655    0.50470    1.000
    Si1077   Si       0.99642    0.74554    0.61208    1.000
    N1078    N        0.04096    0.74923    0.61530    1.000
    N1079    N        0.11383    0.74288    0.51169    1.000
    Si1080   Si       0.12077    0.73714    0.60688    1.000
    Si1081   Si       0.19155    0.72922    0.59019    1.000
    Si1082   Si       0.18751    0.74205    0.51331    1.000
    N1083    N        0.16228    0.74686    0.61439    1.000
    N1084    N        0.18081    0.71759    0.54857    1.000
    N1085    N        0.21524    0.76523    0.58598    1.000
    N1086    N        0.22632    0.73702    0.49327    1.000
    Si1087   Si       0.99124    0.74358    0.68200    1.000
    N1088    N        0.03516    0.74392    0.68055    1.000
    Si1089   Si       0.05587    0.72485    0.64826    1.000
    N1090    N        0.09876    0.72105    0.64278    1.000
    N1091    N        0.09252    0.74310    0.72416    1.000
    Si1092   Si       0.06300    0.76789    0.70373    1.000
    Si1093   Si       0.13507    0.74709    0.70797    1.000
    N1094    N        0.21167    0.75871    0.71235    1.000
    Si1095   Si       0.04131    0.71312    0.51115    1.000
    Si1096   Si       0.02432    0.73070    0.80782    1.000
    N1097    N        0.04412    0.72402    0.84628    1.000
    Si1098   Si       0.11044    0.73978    0.76347    1.000
    N1099    N        0.09207    0.77055    0.78886    1.000
    Si1100   Si       0.20467    0.71806    0.85627    1.000
    N1101    N        0.12673    0.74262    0.84520    1.000
    N1102    N        0.14973    0.75008    0.74707    1.000
    Si1103   Si       0.19196    0.74228    0.74782    1.000
    N1104    N        0.21107    0.76553    0.78085    1.000
    N1105    N        0.05693    0.75572    0.94743    1.000
    Si1106   Si       0.08742    0.77104    0.97472    1.000
    N1107    N        0.10828    0.73370    0.98414    1.000
    Si1108   Si       0.13719    0.71473    0.95605    1.000
    N1109    N        0.16375    0.76031    0.94772    1.000
    Si1110   Si       0.13809    0.74319    0.88719    1.000
    Si1111   Si       0.17399    0.75696    0.98993    1.000
    N1112    N        0.18342    0.74043    0.88547    1.000
    Si1113   Si       0.19901    0.75008    0.92497    1.000
    N1114    N        0.02630    0.77383    0.79507    1.000
    N1115    N        0.22195    0.71567    0.93930    1.000
    Si1116   Si       0.04291    0.71573    0.95597    1.000
    N1117    N        0.08191    0.80015    0.08301    1.000
    Si1118   Si       0.06809    0.80962    0.04129    1.000
    N1119    N        0.02639    0.82139    0.03400    1.000
    N1120    N        0.02070    0.77572    0.11096    1.000
    Si1121   Si       0.05006    0.80737    0.11426    1.000
    N1122    N        0.10376    0.83327    0.02607    1.000
    N1123    N        0.16040    0.78170    0.02099    1.000
    Si1124   Si       0.14901    0.82226    0.02547    1.000
    Si1125   Si       0.16169    0.82464    0.10474    1.000
    Si1126   Si       0.21928    0.78061    0.10997    1.000
    N1127    N        0.14362    0.78361    0.11121    1.000
    N1128    N        0.20885    0.77850    0.06635    1.000
    N1129    N        0.17888    0.79107    0.20671    1.000
    N1130    N        0.05981    0.80743    0.15738    1.000
    Si1131   Si       0.02698    0.79811    0.18460    1.000
    N1132    N        0.04062    0.78403    0.22270    1.000
    Si1133   Si       0.07647    0.80278    0.24027    1.000
    Si1134   Si       0.14373    0.81238    0.21549    1.000
    N1135    N        0.20244    0.81746    0.12265    1.000
    N1136    N        0.11428    0.78213    0.22591    1.000
    Si1137   Si       0.21975    0.80611    0.21588    1.000
    N1138    N        0.07409    0.77325    0.01783    1.000
    N1139    N        0.07371    0.79310    0.28422    1.000
    Si1140   Si       0.05558    0.78494    0.35837    1.000
    N1141    N        0.00810    0.81022    0.28279    1.000
    Si1142   Si       0.03311    0.77649    0.29103    1.000
    N1143    N        0.06247    0.82639    0.34740    1.000
    Si1144   Si       0.15403    0.81607    0.29478    1.000
    N1145    N        0.19459    0.81933    0.30563    1.000
    Si1146   Si       0.21874    0.79805    0.33456    1.000
    N1147    N        0.14394    0.77456    0.30463    1.000
    N1148    N        0.22923    0.82586    0.36775    1.000
    Si1149   Si       0.05327    0.81606    0.43374    1.000
    N1150    N        0.04539    0.81899    0.47746    1.000
    N1151    N        0.06609    0.78335    0.40112    1.000
    Si1152   Si       0.01942    0.78210    0.48069    1.000
    N1153    N        0.01699    0.78252    0.43760    1.000
    Si1154   Si       0.10717    0.78698    0.42684    1.000
    Si1155   Si       0.14879    0.80214    0.49277    1.000
    N1156    N        0.14644    0.77648    0.45749    1.000
    N1157    N        0.19825    0.79753    0.42362    1.000
    Si1158   Si       0.16974    0.76572    0.42125    1.000
    N1159    N        0.03934    0.79261    0.56155    1.000
    Si1160   Si       0.06116    0.78176    0.59799    1.000
    N1161    N        0.10292    0.77588    0.59407    1.000
    N1162    N        0.05249    0.82117    0.61214    1.000
    N1163    N        0.10917    0.80818    0.51000    1.000
    N1164    N        0.19136    0.82802    0.71184    1.000
    N1165    N        0.23693    0.82291    0.56051    1.000
    Si1166   Si       0.19526    0.81156    0.55251    1.000
    N1167    N        0.16938    0.81106    0.58936    1.000
    N1168    N        0.18047    0.78416    0.51977    1.000
    Si1169   Si       0.12578    0.81509    0.59399    1.000
    Si1170   Si       0.18655    0.78207    0.61570    1.000
    N1171    N        0.05724    0.80252    0.73105    1.000
    N1172    N        0.08547    0.78694    0.67350    1.000
    N1173    N        0.15035    0.77932    0.68568    1.000
    Si1174   Si       0.12139    0.80753    0.67166    1.000
    Si1175   Si       0.19263    0.79064    0.69193    1.000
    N1176    N        0.20717    0.79669    0.65133    1.000
    N1177    N        0.11830    0.82939    0.63500    1.000
    Si1178   Si       0.08549    0.77172    0.49848    1.000
    N1179    N        0.08679    0.80530    0.84949    1.000
    Si1180   Si       0.05806    0.79284    0.77334    1.000
    N1181    N        0.00882    0.82821    0.82786    1.000
    Si1182   Si       0.99136    0.79305    0.81145    1.000
    Si1183   Si       0.14436    0.79763    0.93732    1.000
    Si1184   Si       0.11095    0.77798    0.82600    1.000
    N1185    N        0.14938    0.79782    0.81592    1.000
    N1186    N        0.21851    0.80052    0.83892    1.000
    Si1187   Si       0.19273    0.79391    0.80605    1.000
    Si1188   Si       0.03340    0.78929    0.93047    1.000
    N1189    N        0.05558    0.81980    0.91028    1.000
    Si1190   Si       0.09475    0.81454    0.89100    1.000
    N1191    N        0.00512    0.79922    0.96152    1.000
    N1192    N        0.11051    0.80578    0.96250    1.000
    Si1193   Si       0.01621    0.82709    0.99249    1.000
    N1194    N        0.01256    0.77529    0.89499    1.000
    N1195    N        0.22211    0.78476    0.93689    1.000
    Si1196   Si       0.21335    0.82597    0.92690    1.000
    N1197    N        0.12465    0.78350    0.89973    1.000
    N1198    N        0.17302    0.82580    0.92068    1.000
    Si1199   Si       0.05352    0.82976    0.83438    1.000
    N1200    N        0.03292    0.84397    0.10061    1.000
    Si1201   Si       0.00515    0.83939    0.06817    1.000
    N1202    N        0.22366    0.86002    0.02475    1.000
    Si1203   Si       0.19788    0.86734    0.05888    1.000
    N1204    N        0.16774    0.83564    0.06383    1.000
    N1205    N        0.22580    0.88704    0.08608    1.000
    Si1206   Si       0.04507    0.87931    0.12238    1.000
    N1207    N        0.07627    0.87123    0.15069    1.000
    N1208    N        0.08306    0.84322    0.22248    1.000
    Si1209   Si       0.08709    0.83763    0.17655    1.000
    N1210    N        0.00219    0.83431    0.18242    1.000
    Si1211   Si       0.21156    0.87626    0.21382    1.000
    N1212    N        0.15617    0.86513    0.12038    1.000
    N1213    N        0.22407    0.84395    0.24048    1.000
    Si1214   Si       0.22656    0.83943    0.15209    1.000
    N1215    N        0.19785    0.85944    0.17718    1.000
    Si1216   Si       0.15787    0.86281    0.16320    1.000
    N1217    N        0.98420    0.87575    0.06709    1.000
    N1218    N        0.13114    0.83122    0.17839    1.000
    N1219    N        0.06255    0.86795    0.28845    1.000
    Si1220   Si       0.08403    0.87752    0.25033    1.000
    Si1221   Si       0.07767    0.83301    0.30748    1.000
    N1222    N        0.03104    0.88589    0.34765    1.000
    Si1223   Si       0.18136    0.83664    0.43651    1.000
    Si1224   Si       0.21766    0.85026    0.28335    1.000
    Si1225   Si       0.15626    0.87656    0.26090    1.000
    N1226    N        0.15306    0.83298    0.25480    1.000
    N1227    N        0.18791    0.88308    0.29054    1.000
    N1228    N        0.12065    0.83735    0.31248    1.000
    Si1229   Si       0.05251    0.85879    0.37507    1.000
    N1230    N        0.03208    0.84453    0.40867    1.000
    N1231    N        0.08734    0.87862    0.38789    1.000
    Si1232   Si       0.99021    0.84913    0.41293    1.000
    Si1233   Si       0.98849    0.88546    0.35021    1.000
    Si1234   Si       0.11489    0.86350    0.41872    1.000
    N1235    N        0.21331    0.86285    0.42487    1.000
    N1236    N        0.16126    0.84033    0.47538    1.000
    N1237    N        0.15585    0.85666    0.40729    1.000
    N1238    N        0.09712    0.82705    0.43250    1.000
    N1239    N        0.05545    0.85383    0.53869    1.000
    Si1240   Si       0.09907    0.84703    0.52991    1.000
    N1241    N        0.00118    0.85665    0.58289    1.000
    Si1242   Si       0.03336    0.85291    0.50108    1.000
    N1243    N        0.11320    0.84925    0.57143    1.000
    Si1244   Si       0.03688    0.83469    0.57164    1.000
    Si1245   Si       0.10429    0.88590    0.59181    1.000
    N1246    N        0.15391    0.89002    0.73318    1.000
    N1247    N        0.11807    0.87950    0.50613    1.000
    N1248    N        0.18104    0.85114    0.53800    1.000
    Si1249   Si       0.16081    0.87283    0.50415    1.000
    Si1250   Si       0.19367    0.88248    0.56504    1.000
    N1251    N        0.20354    0.88737    0.60783    1.000
    Si1252   Si       0.01639    0.86054    0.67834    1.000
    Si1253   Si       0.07765    0.83871    0.71578    1.000
    N1254    N        0.05805    0.84874    0.67856    1.000
    Si1255   Si       0.07752    0.84499    0.63899    1.000
    N1256    N        0.01600    0.88340    0.71715    1.000
    N1257    N        0.07806    0.87751    0.73784    1.000
    N1258    N        0.07677    0.88605    0.62363    1.000
    Si1259   Si       0.15833    0.85503    0.70682    1.000
    N1260    N        0.16739    0.88375    0.67292    1.000
    N1261    N        0.11909    0.83805    0.70327    1.000
    Si1262   Si       0.07890    0.87014    0.78045    1.000
    N1263    N        0.05387    0.86450    0.86014    1.000
    N1264    N        0.06220    0.83273    0.79087    1.000
    N1265    N        0.23637    0.83991    0.89159    1.000
    N1266    N        0.23144    0.87460    0.83073    1.000
    N1267    N        0.22710    0.87769    0.75176    1.000
    N1268    N        0.12248    0.86483    0.79191    1.000
    N1269    N        0.17221    0.84769    0.85394    1.000
    Si1270   Si       0.15175    0.84234    0.81519    1.000
    Si1271   Si       0.21576    0.84260    0.85503    1.000
    N1272    N        0.19133    0.83497    0.78568    1.000
    Si1273   Si       0.21524    0.83532    0.74713    1.000
    Si1274   Si       0.21047    0.87633    0.79276    1.000
    Si1275   Si       0.03550    0.85657    0.89928    1.000
    N1276    N        0.05549    0.84306    0.98062    1.000
    N1277    N        0.10077    0.87999    0.96303    1.000
    Si1278   Si       0.09949    0.84106    0.98449    1.000
    Si1279   Si       0.05821    0.88394    0.96660    1.000
    N1280    N        0.99245    0.85768    0.88967    1.000
    N1281    N        0.04425    0.88888    0.92516    1.000
    N1282    N        0.11378    0.85205    0.90297    1.000
    N1283    N        0.22344    0.85476    0.95655    1.000
    Si1284   Si       0.15603    0.85349    0.89330    1.000
    Si1285   Si       0.19779    0.87035    0.98842    1.000
    N1286    N        0.16129    0.85049    0.99593    1.000
    N1287    N        0.05149    0.91781    0.09990    1.000
    Si1288   Si       0.08556    0.93659    0.08352    1.000
    N1289    N        0.09258    0.93385    0.04321    1.000
    N1290    N        0.11538    0.91648    0.10675    1.000
    Si1291   Si       0.17692    0.93204    0.02316    1.000
    N1292    N        0.17224    0.90297    0.05677    1.000
    Si1293   Si       0.20823    0.92589    0.07680    1.000
    Si1294   Si       0.15462    0.90419    0.09799    1.000
    N1295    N        0.18191    0.93437    0.11127    1.000
    Si1296   Si       0.01941    0.93652    0.12126    1.000
    N1297    N        0.07826    0.93895    0.16241    1.000
    N1298    N        0.06185    0.91292    0.23226    1.000
    Si1299   Si       0.10223    0.90582    0.14807    1.000
    N1300    N        0.00966    0.89610    0.14163    1.000
    Si1301   Si       0.07880    0.94394    0.20644    1.000
    Si1302   Si       0.15311    0.92548    0.20587    1.000
    N1303    N        0.13664    0.89870    0.17367    1.000
    N1304    N        0.17556    0.89712    0.22764    1.000
    N1305    N        0.00431    0.94821    0.22129    1.000
    N1306    N        0.08599    0.92669    0.32302    1.000
    N1307    N        0.02872    0.92976    0.29052    1.000
    Si1308   Si       0.05195    0.90177    0.31427    1.000
    Si1309   Si       0.02310    0.91778    0.24921    1.000
    N1310    N        0.98495    0.89549    0.25333    1.000
    Si1311   Si       0.11648    0.93221    0.29316    1.000
    N1312    N        0.11870    0.89718    0.26786    1.000
    Si1313   Si       0.19048    0.91227    0.32272    1.000
    N1314    N        0.15468    0.93526    0.31369    1.000
    N1315    N        0.20437    0.88888    0.35585    1.000
    Si1316   Si       0.10344    0.91332    0.48160    1.000
    Si1317   Si       0.07886    0.91587    0.41261    1.000
    N1318    N        0.06752    0.93633    0.47758    1.000
    N1319    N        0.03786    0.92556    0.41786    1.000
    Si1320   Si       0.02425    0.92833    0.46196    1.000
    Si1321   Si       0.18927    0.88634    0.39709    1.000
    N1322    N        0.18199    0.90395    0.48572    1.000
    N1323    N        0.10739    0.89919    0.44064    1.000
    N1324    N        0.18165    0.92414    0.41657    1.000
    N1325    N        0.23359    0.94790    0.49226    1.000
    Si1326   Si       0.16998    0.93417    0.45801    1.000
    N1327    N        0.13343    0.94671    0.47882    1.000
    N1328    N        0.02444    0.88801    0.47850    1.000
    N1329    N        0.09895    0.92605    0.57200    1.000
    N1330    N        0.04111    0.94561    0.61138    1.000
    N1331    N        0.16687    0.91459    0.54851    1.000
    Si1332   Si       0.20108    0.92712    0.51731    1.000
    Si1333   Si       0.13991    0.93568    0.57596    1.000
    N1334    N        0.22620    0.90346    0.54470    1.000
    N1335    N        0.14106    0.90239    0.60765    1.000
    N1336    N        0.06687    0.92616    0.68057    1.000
    Si1337   Si       0.05378    0.90794    0.71864    1.000
    Si1338   Si       0.05025    0.91446    0.64303    1.000
    N1339    N        0.01278    0.89366    0.64875    1.000
    Si1340   Si       0.15990    0.91892    0.69799    1.000
    N1341    N        0.19859    0.93851    0.70615    1.000
    Si1342   Si       0.17313    0.90200    0.63388    1.000
    N1343    N        0.17520    0.94431    0.64632    1.000
    N1344    N        0.12924    0.95049    0.70875    1.000
    Si1345   Si       0.07261    0.93971    0.78577    1.000
    N1346    N        0.06184    0.90105    0.80432    1.000
    Si1347   Si       0.04246    0.90066    0.84120    1.000
    N1348    N        0.99754    0.89672    0.83564    1.000
    N1349    N        0.04566    0.93991    0.74841    1.000
    N1350    N        0.11307    0.93304    0.77228    1.000
    Si1351   Si       0.14193    0.90056    0.77461    1.000
    N1352    N        0.17580    0.90240    0.80092    1.000
    N1353    N        0.19621    0.92953    0.85671    1.000
    Si1354   Si       0.11645    0.89112    0.92336    1.000
    N1355    N        0.22888    0.94117    0.80651    1.000
    Si1356   Si       0.18378    0.94412    0.81004    1.000
    N1357    N        0.04771    0.93183    0.87008    1.000
    N1358    N        0.02939    0.91125    0.98411    1.000
    Si1359   Si       0.05471    0.92894    0.91229    1.000
    N1360    N        0.09906    0.92977    0.91626    1.000
    Si1361   Si       0.98763    0.89805    0.98386    1.000
    Si1362   Si       0.21618    0.94270    0.96357    1.000
    N1363    N        0.19183    0.91516    0.98731    1.000
    N1364    N        0.22172    0.93118    0.92382    1.000
    N1365    N        0.15909    0.89423    0.91134    1.000
    Si1366   Si       0.18414    0.92645    0.89997    1.000
    Si1367   Si       0.23419    0.91785    0.84234    1.000
    N1368    N        0.08686    0.97793    0.09615    1.000
    Si1369   Si       0.10528    0.96757    0.01802    1.000
    N1370    N        0.00363    0.96992    0.01090    1.000
    Si1371   Si       0.19096    0.96098    0.14373    1.000
    N1372    N        0.14582    0.95994    0.00580    1.000
    N1373    N        0.21394    0.95099    0.04210    1.000
    Si1374   Si       0.01972    0.98844    0.21609    1.000
    N1375    N        0.02981    0.97631    0.13640    1.000
    Si1376   Si       0.07395    0.97548    0.13709    1.000
    N1377    N        0.06153    0.98346    0.20862    1.000
    N1378    N        0.10280    0.00197    0.15563    1.000
    N1379    N        0.23227    0.97367    0.22514    1.000
    Si1380   Si       0.20515    0.00396    0.24610    1.000
    N1381    N        0.17970    0.95148    0.18680    1.000
    N1382    N        0.17815    0.00054    0.13521    1.000
    N1383    N        0.11939    0.94993    0.21880    1.000
    N1384    N        0.23231    0.95760    0.15185    1.000
    Si1385   Si       0.22298    0.94582    0.19404    1.000
    N1386    N        0.09686    0.99315    0.34688    1.000
    Si1387   Si       0.07615    0.95472    0.35322    1.000
    N1388    N        0.03301    0.95591    0.35629    1.000
    N1389    N        0.10884    0.97519    0.28048    1.000
    Si1390   Si       0.00824    0.94932    0.32231    1.000
    Si1391   Si       0.09040    0.00541    0.30470    1.000
    N1392    N        0.98882    0.98860    0.31869    1.000
    Si1393   Si       0.17821    0.97149    0.30279    1.000
    N1394    N        0.17216    0.98219    0.26118    1.000
    N1395    N        0.15224    0.00420    0.39376    1.000
    Si1396   Si       0.13214    0.98494    0.24453    1.000
    N1397    N        0.09570    0.95259    0.39286    1.000
    N1398    N        0.02348    0.99300    0.41973    1.000
    Si1399   Si       0.01435    0.95642    0.39760    1.000
    N1400    N        0.00807    0.96484    0.48588    1.000
    Si1401   Si       0.21161    0.98303    0.48754    1.000
    Si1402   Si       0.11096    0.99358    0.38733    1.000
    Si1403   Si       0.20909    0.95792    0.41481    1.000
    N1404    N        0.18921    0.97527    0.45057    1.000
    N1405    N        0.21822    0.98812    0.38566    1.000
    N1406    N        0.21378    0.94775    0.31663    1.000
    N1407    N        0.08091    0.99169    0.58710    1.000
    N1408    N        0.09637    0.98109    0.52251    1.000
    Si1409   Si       0.05801    0.97234    0.50297    1.000
    Si1410   Si       0.06479    0.95259    0.57585    1.000
    N1411    N        0.04117    0.95381    0.54007    1.000
    Si1412   Si       0.21190    0.95183    0.66735    1.000
    Si1413   Si       0.99912    0.94911    0.52779    1.000
    N1414    N        0.22197    0.99793    0.56210    1.000
    N1415    N        0.18231    0.96938    0.51700    1.000
    N1416    N        0.15797    0.97193    0.58918    1.000
    Si1417   Si       0.17868    0.99089    0.55509    1.000
    Si1418   Si       0.13619    0.98457    0.50274    1.000
    Si1419   Si       0.01330    0.97768    0.62157    1.000
    N1420    N        0.00282    0.98233    0.70324    1.000
    N1421    N        0.07424    0.99341    0.70859    1.000
    Si1422   Si       0.09509    0.96260    0.68570    1.000
    Si1423   Si       0.00877    0.96122    0.74119    1.000
    N1424    N        0.10850    0.97755    0.64843    1.000
    N1425    N        0.04108    0.00049    0.64734    1.000
    N1426    N        0.22492    0.99289    0.66968    1.000
    Si1427   Si       0.08036    0.00604    0.62889    1.000
    Si1428   Si       0.14880    0.97675    0.63254    1.000
    N1429    N        0.18229    0.00422    0.72491    1.000
    Si1430   Si       0.20636    0.96994    0.73777    1.000
    N1431    N        0.05771    0.96948    0.81324    1.000
    Si1432   Si       0.01791    0.98838    0.80930    1.000
    Si1433   Si       0.05987    0.97197    0.85644    1.000
    N1434    N        0.00139    0.99555    0.76844    1.000
    Si1435   Si       0.13729    0.96079    0.74904    1.000
    N1436    N        0.16148    0.97977    0.82764    1.000
    N1437    N        0.12746    0.00014    0.76411    1.000
    N1438    N        0.17688    0.95532    0.76659    1.000
    Si1439   Si       0.17536    0.98810    0.86686    1.000
    N1440    N        0.02723    0.00000    0.87126    1.000
    N1441    N        0.09487    0.98203    0.87879    1.000
    Si1442   Si       0.01617    0.99239    0.91332    1.000
    N1443    N        0.03441    0.96102    0.93491    1.000
    Si1444   Si       0.03563    0.95591    0.98155    1.000
    N1445    N        0.12497    0.99490    0.94435    1.000
    Si1446   Si       0.15745    0.98712    0.97607    1.000
    Si1447   Si       0.11958    0.96795    0.90963    1.000
    N1448    N        0.16278    0.96230    0.90150    1.000
    N1449    N        0.19939    0.98338    0.96576    1.000
    N1450    N        0.07035    0.97767    0.99388    1.000
    N1451    N        0.98682    0.96326    0.82284    1.000
    N1452    N        0.29854    0.03317    0.09466    1.000
    Si1453   Si       0.30290    0.01522    0.01317    1.000
    N1454    N        0.30167    0.05832    0.01176    1.000
    N1455    N        0.39460    0.03864    0.05717    1.000
    Si1456   Si       0.38203    0.02403    0.01793    1.000
    Si1457   Si       0.43789    0.05290    0.06345    1.000
    Si1458   Si       0.38267    0.04517    0.09811    1.000
    N1459    N        0.42624    0.05778    0.10907    1.000
    N1460    N        0.48476    0.06104    0.05751    1.000
    N1461    N        0.44933    0.01114    0.06569    1.000
    N1462    N        0.37708    0.06215    0.00141    1.000
    N1463    N        0.25474    0.04525    0.21273    1.000
    N1464    N        0.31223    0.04708    0.16487    1.000
    Si1465   Si       0.27608    0.02507    0.17848    1.000
    Si1466   Si       0.31254    0.06100    0.12309    1.000
    N1467    N        0.44154    0.03647    0.18977    1.000
    N1468    N        0.37732    0.04999    0.20647    1.000
    Si1469   Si       0.45155    0.00837    0.22093    1.000
    Si1470   Si       0.37604    0.01695    0.23459    1.000
    Si1471   Si       0.44951    0.03791    0.14763    1.000
    N1472    N        0.31734    0.06396    0.22828    1.000
    Si1473   Si       0.33942    0.06619    0.19136    1.000
    Si1474   Si       0.26180    0.03241    0.30582    1.000
    Si1475   Si       0.31817    0.03379    0.26258    1.000
    N1476    N        0.30035    0.05135    0.29657    1.000
    N1477    N        0.34598    0.01519    0.34712    1.000
    N1478    N        0.35888    0.02579    0.27256    1.000
    Si1479   Si       0.47650    0.05124    0.26905    1.000
    Si1480   Si       0.37356    0.02843    0.31551    1.000
    Si1481   Si       0.45094    0.02084    0.33096    1.000
    N1482    N        0.47144    0.05464    0.31136    1.000
    N1483    N        0.47653    0.00922    0.25596    1.000
    Si1484   Si       0.33029    0.00753    0.38656    1.000
    N1485    N        0.26055    0.04466    0.38398    1.000
    Si1486   Si       0.34445    0.02046    0.44586    1.000
    N1487    N        0.31926    0.03982    0.41508    1.000
    N1488    N        0.32014    0.01134    0.48025    1.000
    N1489    N        0.26108    0.06253    0.45255    1.000
    Si1490   Si       0.28432    0.06326    0.41646    1.000
    Si1491   Si       0.48876    0.01458    0.39662    1.000
    N1492    N        0.45403    0.03117    0.37272    1.000
    N1493    N        0.48088    0.04406    0.49026    1.000
    N1494    N        0.37268    0.05254    0.45999    1.000
    N1495    N        0.23821    0.01149    0.27499    1.000
    N1496    N        0.44023    0.06163    0.43380    1.000
    Si1497   Si       0.25735    0.00216    0.37719    1.000
    Si1498   Si       0.30771    0.03505    0.51546    1.000
    N1499    N        0.34861    0.05138    0.52300    1.000
    N1500    N        0.27794    0.01587    0.54126    1.000
    N1501    N        0.33096    0.03274    0.61857    1.000
    Si1502   Si       0.44001    0.02966    0.64108    1.000
    Si1503   Si       0.37441    0.03501    0.60596    1.000
    N1504    N        0.44944    0.02906    0.60085    1.000
    Si1505   Si       0.42869    0.02474    0.56089    1.000
    N1506    N        0.42380    0.05458    0.53288    1.000
    Si1507   Si       0.48613    0.01873    0.57700    1.000
    N1508    N        0.38834    0.00994    0.57245    1.000
    Si1509   Si       0.29569    0.05601    0.61817    1.000
    N1510    N        0.27267    0.04527    0.65616    1.000
    N1511    N        0.34567    0.06056    0.68956    1.000
    N1512    N        0.39780    0.03598    0.64339    1.000
    N1513    N        0.40918    0.03414    0.70984    1.000
    N1514    N        0.45470    0.06613    0.66396    1.000
    Si1515   Si       0.37568    0.02845    0.68067    1.000
    N1516    N        0.49075    0.06004    0.55637    1.000
    N1517    N        0.29546    0.04060    0.83299    1.000
    N1518    N        0.28273    0.04199    0.76444    1.000
    Si1519   Si       0.27112    0.05962    0.80373    1.000
    Si1520   Si       0.38454    0.03038    0.81612    1.000
    N1521    N        0.41101    0.04275    0.78178    1.000
    N1522    N        0.40317    0.01314    0.85269    1.000
    Si1523   Si       0.41689    0.01397    0.74872    1.000
    Si1524   Si       0.29637    0.05924    0.87143    1.000
    Si1525   Si       0.29436    0.03985    0.94292    1.000
    N1526    N        0.30740    0.03189    0.90263    1.000
    N1527    N        0.33405    0.05503    0.95224    1.000
    Si1528   Si       0.34847    0.03040    0.91630    1.000
    N1529    N        0.25468    0.06510    0.88063    1.000
    N1530    N        0.47672    0.01104    0.97603    1.000
    N1531    N        0.41749    0.01355    0.92407    1.000
    Si1532   Si       0.43642    0.02248    0.96384    1.000
    N1533    N        0.37325    0.05494    0.89406    1.000
    Si1534   Si       0.41230    0.03685    0.88861    1.000
    N1535    N        0.43902    0.06812    0.87784    1.000
    Si1536   Si       0.27472    0.10272    0.07970    1.000
    N1537    N        0.26088    0.11266    0.00879    1.000
    N1538    N        0.24636    0.07557    0.05717    1.000
    Si1539   Si       0.26133    0.07002    0.99881    1.000
    Si1540   Si       0.43952    0.09649    0.12348    1.000
    N1541    N        0.29039    0.09872    0.12072    1.000
    N1542    N        0.35426    0.06927    0.11775    1.000
    N1543    N        0.30971    0.12095    0.05787    1.000
    N1544    N        0.40664    0.11509    0.14513    1.000
    N1545    N        0.43145    0.08827    0.03694    1.000
    N1546    N        0.38293    0.11345    0.07559    1.000
    Si1547   Si       0.41370    0.08213    0.99619    1.000
    N1548    N        0.34381    0.10660    0.17466    1.000
    N1549    N        0.26604    0.10960    0.19505    1.000
    Si1550   Si       0.27684    0.07906    0.22572    1.000
    N1551    N        0.41456    0.10996    0.21126    1.000
    Si1552   Si       0.41628    0.06654    0.21220    1.000
    Si1553   Si       0.36376    0.10724    0.13493    1.000
    N1554    N        0.47255    0.07541    0.14621    1.000
    Si1555   Si       0.31956    0.08899    0.31235    1.000
    N1556    N        0.32677    0.09317    0.35413    1.000
    Si1557   Si       0.24855    0.10494    0.29735    1.000
    N1558    N        0.34839    0.11489    0.29021    1.000
    N1559    N        0.26106    0.10687    0.25704    1.000
    N1560    N        0.28582    0.11935    0.31724    1.000
    N1561    N        0.24519    0.11368    0.36543    1.000
    Si1562   Si       0.28936    0.11870    0.36532    1.000
    Si1563   Si       0.39035    0.10970    0.30958    1.000
    Si1564   Si       0.43641    0.11161    0.24947    1.000
    N1565    N        0.43926    0.06792    0.25046    1.000
    Si1566   Si       0.37011    0.09820    0.36993    1.000
    N1567    N        0.37923    0.07060    0.32245    1.000
    N1568    N        0.46466    0.09979    0.37366    1.000
    N1569    N        0.32315    0.09718    0.46553    1.000
    Si1570   Si       0.27986    0.09328    0.47747    1.000
    N1571    N        0.29386    0.10432    0.40637    1.000
    Si1572   Si       0.35388    0.07893    0.49000    1.000
    Si1573   Si       0.32515    0.12235    0.42924    1.000
    N1574    N        0.35965    0.12158    0.40567    1.000
    N1575    N        0.39624    0.07129    0.39295    1.000
    Si1576   Si       0.48977    0.08538    0.33580    1.000
    Si1577   Si       0.39915    0.07485    0.43602    1.000
    N1578    N        0.40413    0.11520    0.45208    1.000
    N1579    N        0.40105    0.12472    0.35016    1.000
    Si1580   Si       0.43866    0.06607    0.39042    1.000
    Si1581   Si       0.41495    0.12376    0.49241    1.000
    Si1582   Si       0.47800    0.06587    0.45280    1.000
    Si1583   Si       0.29066    0.09539    0.55279    1.000
    N1584    N        0.27178    0.07425    0.58764    1.000
    N1585    N        0.28570    0.07423    0.51633    1.000
    N1586    N        0.32801    0.11334    0.56921    1.000
    Si1587   Si       0.36423    0.11251    0.59267    1.000
    N1588    N        0.38108    0.10368    0.51509    1.000
    N1589    N        0.37958    0.07287    0.58502    1.000
    N1590    N        0.46594    0.10771    0.59580    1.000
    N1591    N        0.45283    0.10768    0.50712    1.000
    Si1592   Si       0.38265    0.06864    0.54204    1.000
    Si1593   Si       0.46499    0.06934    0.52240    1.000
    N1594    N        0.28543    0.08944    0.71270    1.000
    N1595    N        0.30681    0.09212    0.64355    1.000
    Si1596   Si       0.36241    0.09373    0.71259    1.000
    N1597    N        0.23906    0.10997    0.66256    1.000
    Si1598   Si       0.25502    0.11942    0.70334    1.000
    N1599    N        0.45410    0.07732    0.73791    1.000
    Si1600   Si       0.43086    0.07157    0.70098    1.000
    N1601    N        0.40165    0.10309    0.69429    1.000
    Si1602   Si       0.30365    0.06962    0.67925    1.000
    N1603    N        0.36521    0.12436    0.63457    1.000
    N1604    N        0.28767    0.09901    0.79089    1.000
    N1605    N        0.34574    0.08792    0.75317    1.000
    Si1606   Si       0.30130    0.07971    0.75230    1.000
    Si1607   Si       0.36275    0.08666    0.86737    1.000
    Si1608   Si       0.36396    0.09829    0.79096    1.000
    N1609    N        0.40389    0.11386    0.77991    1.000
    Si1610   Si       0.46999    0.07798    0.84989    1.000
    N1611    N        0.46651    0.07917    0.80660    1.000
    Si1612   Si       0.43295    0.07868    0.77545    1.000
    N1613    N        0.37272    0.07239    0.82657    1.000
    N1614    N        0.45707    0.12222    0.85579    1.000
    N1615    N        0.32000    0.09490    0.87253    1.000
    Si1616   Si       0.33627    0.07285    0.99088    1.000
    N1617    N        0.26373    0.06844    0.95165    1.000
    N1618    N        0.44100    0.06632    0.96659    1.000
    N1619    N        0.39133    0.11893    0.87636    1.000
    Si1620   Si       0.46853    0.09947    0.95193    1.000
    Si1621   Si       0.43179    0.10967    0.88876    1.000
    N1622    N        0.44605    0.12511    0.92532    1.000
    N1623    N        0.33730    0.11467    0.99672    1.000
    Si1624   Si       0.34765    0.13630    0.07515    1.000
    N1625    N        0.24487    0.13557    0.07767    1.000
    N1626    N        0.36045    0.17370    0.05729    1.000
    Si1627   Si       0.46289    0.17052    0.22023    1.000
    Si1628   Si       0.30278    0.12874    0.01524    1.000
    Si1629   Si       0.47586    0.15911    0.10008    1.000
    N1630    N        0.42348    0.15986    0.03651    1.000
    Si1631   Si       0.43941    0.14525    0.99722    1.000
    N1632    N        0.45355    0.12339    0.09110    1.000
    N1633    N        0.34414    0.14277    0.11738    1.000
    Si1634   Si       0.40802    0.13985    0.18093    1.000
    Si1635   Si       0.32868    0.17941    0.13548    1.000
    N1636    N        0.25799    0.17482    0.21404    1.000
    N1637    N        0.31507    0.14130    0.23153    1.000
    Si1638   Si       0.33722    0.14403    0.19462    1.000
    N1639    N        0.30394    0.16110    0.16811    1.000
    Si1640   Si       0.27247    0.13775    0.22901    1.000
    Si1641   Si       0.28391    0.12538    0.15398    1.000
    N1642    N        0.47226    0.13223    0.23780    1.000
    N1643    N        0.37228    0.16557    0.18674    1.000
    N1644    N        0.44030    0.16994    0.18291    1.000
    N1645    N        0.24076    0.13406    0.14615    1.000
    Si1646   Si       0.42291    0.12208    0.06142    1.000
    Si1647   Si       0.33797    0.14938    0.26845    1.000
    Si1648   Si       0.29076    0.16243    0.32010    1.000
    N1649    N        0.29787    0.16179    0.36320    1.000
    N1650    N        0.32474    0.17678    0.29762    1.000
    N1651    N        0.37035    0.17562    0.25591    1.000
    Si1652   Si       0.40865    0.17299    0.27535    1.000
    N1653    N        0.46269    0.17339    0.35290    1.000
    Si1654   Si       0.44187    0.13577    0.36472    1.000
    N1655    N        0.41621    0.13069    0.28241    1.000
    Si1656   Si       0.47369    0.14432    0.42915    1.000
    Si1657   Si       0.27903    0.16469    0.46313    1.000
    N1658    N        0.31834    0.16036    0.44434    1.000
    N1659    N        0.25750    0.12875    0.46721    1.000
    N1660    N        0.43896    0.15320    0.40578    1.000
    Si1661   Si       0.39292    0.14404    0.42255    1.000
    N1662    N        0.47167    0.16436    0.46871    1.000
    Si1663   Si       0.30901    0.15430    0.56519    1.000
    N1664    N        0.27221    0.13438    0.55190    1.000
    N1665    N        0.33691    0.16765    0.53158    1.000
    Si1666   Si       0.37252    0.14471    0.53188    1.000
    N1667    N        0.38877    0.14271    0.57263    1.000
    N1668    N        0.40159    0.16293    0.50582    1.000
    Si1669   Si       0.40017    0.17027    0.60420    1.000
    Si1670   Si       0.48327    0.13970    0.50384    1.000
    N1671    N        0.48245    0.16339    0.53923    1.000
    Si1672   Si       0.34619    0.17185    0.69527    1.000
    N1673    N        0.26593    0.16124    0.70805    1.000
    N1674    N        0.31742    0.17498    0.66037    1.000
    Si1675   Si       0.32645    0.12927    0.65268    1.000
    N1676    N        0.34127    0.12882    0.69436    1.000
    N1677    N        0.24596    0.17982    0.64491    1.000
    Si1678   Si       0.46647    0.14114    0.62202    1.000
    N1679    N        0.48667    0.13128    0.66112    1.000
    N1680    N        0.38794    0.17292    0.68452    1.000
    N1681    N        0.42483    0.14954    0.63543    1.000
    Si1682   Si       0.39529    0.13475    0.66427    1.000
    N1683    N        0.43052    0.17007    0.73968    1.000
    N1684    N        0.28626    0.15261    0.84035    1.000
    N1685    N        0.30264    0.16589    0.76951    1.000
    Si1686   Si       0.30323    0.13813    0.80232    1.000
    Si1687   Si       0.26632    0.17729    0.74767    1.000
    N1688    N        0.34478    0.13189    0.80946    1.000
    Si1689   Si       0.40843    0.15684    0.77698    1.000
    Si1690   Si       0.45402    0.15633    0.82988    1.000
    N1691    N        0.46877    0.14594    0.78989    1.000
    N1692    N        0.41646    0.17240    0.81748    1.000
    Si1693   Si       0.47129    0.17362    0.75715    1.000
    N1694    N        0.48013    0.18469    0.84819    1.000
    Si1695   Si       0.31150    0.13897    0.87324    1.000
    Si1696   Si       0.25338    0.15447    0.99087    1.000
    N1697    N        0.34354    0.16676    0.87866    1.000
    N1698    N        0.28756    0.14053    0.91080    1.000
    Si1699   Si       0.31351    0.15756    0.94053    1.000
    N1700    N        0.35528    0.14266    0.93807    1.000
    Si1701   Si       0.24444    0.14986    0.91753    1.000
    N1702    N        0.29521    0.15985    0.98230    1.000
    N1703    N        0.23711    0.17775    0.88429    1.000
    Si1704   Si       0.37655    0.15149    0.90091    1.000
    Si1705   Si       0.44721    0.16907    0.93312    1.000
    N1706    N        0.40902    0.17891    0.91178    1.000
    Si1707   Si       0.36763    0.13983    0.97853    1.000
    N1708    N        0.36142    0.18114    0.99416    1.000
    N1709    N        0.44083    0.18207    0.97488    1.000
    N1710    N        0.47483    0.12544    0.98600    1.000
    N1711    N        0.40559    0.12272    0.98422    1.000
    N1712    N        0.30341    0.20521    0.03024    1.000
    Si1713   Si       0.33175    0.20415    0.06098    1.000
    N1714    N        0.30955    0.19725    0.09828    1.000
    N1715    N        0.24329    0.19282    0.11343    1.000
    N1716    N        0.24241    0.23473    0.01791    1.000
    Si1717   Si       0.27722    0.22149    0.11610    1.000
    N1718    N        0.40416    0.22766    0.01879    1.000
    N1719    N        0.45496    0.19181    0.11792    1.000
    Si1720   Si       0.37489    0.20723    0.17987    1.000
    Si1721   Si       0.38988    0.18597    0.02708    1.000
    N1722    N        0.31375    0.21666    0.21917    1.000
    N1723    N        0.33946    0.21561    0.15527    1.000
    Si1724   Si       0.28637    0.19702    0.19043    1.000
    N1725    N        0.27427    0.22578    0.16145    1.000
    N1726    N        0.47020    0.24219    0.00277    1.000
    N1727    N        0.40692    0.22310    0.15647    1.000
    N1728    N        0.47134    0.23351    0.17241    1.000
    N1729    N        0.37919    0.23310    0.21679    1.000
    Si1730   Si       0.44667    0.20418    0.15752    1.000
    Si1731   Si       0.28473    0.24127    0.01640    1.000
    N1732    N        0.35065    0.20836    0.35419    1.000
    N1733    N        0.28701    0.22848    0.35103    1.000
    Si1734   Si       0.25236    0.22608    0.32582    1.000
    Si1735   Si       0.35587    0.20469    0.30993    1.000
    N1736    N        0.35316    0.23803    0.28137    1.000
    N1737    N        0.25460    0.18689    0.31059    1.000
    Si1738   Si       0.42155    0.22554    0.33021    1.000
    N1739    N        0.46194    0.22610    0.30967    1.000
    Si1740   Si       0.45700    0.22654    0.26487    1.000
    N1741    N        0.39692    0.19681    0.31019    1.000
    N1742    N        0.43941    0.18908    0.25148    1.000
    Si1743   Si       0.31092    0.20153    0.37339    1.000
    N1744    N        0.31749    0.21616    0.41196    1.000
    N1745    N        0.25217    0.19337    0.44381    1.000
    Si1746   Si       0.34419    0.19464    0.44107    1.000
    N1747    N        0.35451    0.20822    0.48058    1.000
    Si1748   Si       0.25299    0.21729    0.48196    1.000
    N1749    N        0.28754    0.19503    0.49317    1.000
    Si1750   Si       0.37818    0.21874    0.38712    1.000
    N1751    N        0.42556    0.22139    0.47000    1.000
    Si1752   Si       0.44569    0.19328    0.38990    1.000
    N1753    N        0.41767    0.21935    0.37144    1.000
    N1754    N        0.47065    0.21753    0.41666    1.000
    Si1755   Si       0.46589    0.20804    0.46218    1.000
    N1756    N        0.37836    0.18554    0.41792    1.000
    Si1757   Si       0.35106    0.21510    0.24369    1.000
    Si1758   Si       0.26282    0.21026    0.58807    1.000
    Si1759   Si       0.32413    0.20456    0.51212    1.000
    N1760    N        0.26259    0.23492    0.55227    1.000
    N1761    N        0.30001    0.18625    0.58982    1.000
    N1762    N        0.25452    0.24252    0.61952    1.000
    N1763    N        0.46534    0.23030    0.55134    1.000
    N1764    N        0.42784    0.19917    0.58719    1.000
    N1765    N        0.39496    0.23076    0.53081    1.000
    Si1766   Si       0.42328    0.23475    0.56306    1.000
    Si1767   Si       0.46622    0.19055    0.56810    1.000
    N1768    N        0.36514    0.19117    0.61268    1.000
    Si1769   Si       0.39501    0.20385    0.49527    1.000
    N1770    N        0.32411    0.24131    0.62883    1.000
    Si1771   Si       0.32504    0.19930    0.62322    1.000
    N1772    N        0.26715    0.23004    0.67991    1.000
    N1773    N        0.34269    0.20145    0.72565    1.000
    Si1774   Si       0.27700    0.18719    0.67482    1.000
    N1775    N        0.46480    0.19638    0.68278    1.000
    Si1776   Si       0.46663    0.24041    0.67419    1.000
    Si1777   Si       0.42504    0.18827    0.70054    1.000
    N1778    N        0.41340    0.22853    0.71405    1.000
    Si1779   Si       0.37955    0.21724    0.73860    1.000
    Si1780   Si       0.33247    0.19667    0.76965    1.000
    N1781    N        0.25941    0.22037    0.75503    1.000
    N1782    N        0.35247    0.21923    0.83361    1.000
    N1783    N        0.31586    0.23421    0.78273    1.000
    N1784    N        0.24110    0.21122    0.82680    1.000
    Si1785   Si       0.26576    0.18779    0.85313    1.000
    Si1786   Si       0.38972    0.20771    0.81505    1.000
    N1787    N        0.37704    0.19334    0.77575    1.000
    N1788    N        0.48021    0.21592    0.76586    1.000
    N1789    N        0.29555    0.21477    0.86839    1.000
    Si1790   Si       0.33807    0.20933    0.87284    1.000
    N1791    N        0.31436    0.20043    0.94106    1.000
    Si1792   Si       0.29161    0.23680    0.93990    1.000
    Si1793   Si       0.31921    0.19773    0.98924    1.000
    N1794    N        0.25106    0.23709    0.94221    1.000
    N1795    N        0.36364    0.23370    0.89756    1.000
    Si1796   Si       0.43299    0.22571    0.98564    1.000
    N1797    N        0.48197    0.18537    0.91530    1.000
    N1798    N        0.41531    0.23831    0.94711    1.000
    Si1799   Si       0.47209    0.21109    0.88019    1.000
    N1800    N        0.43544    0.23428    0.87981    1.000
    Si1801   Si       0.40530    0.22207    0.90858    1.000
    N1802    N        0.28692    0.27046    0.04902    1.000
    Si1803   Si       0.32030    0.27435    0.07562    1.000
    N1804    N        0.35046    0.28734    0.01716    1.000
    Si1805   Si       0.24287    0.26338    0.05134    1.000
    N1806    N        0.30378    0.26597    0.11545    1.000
    N1807    N        0.24647    0.25038    0.09352    1.000
    N1808    N        0.35212    0.24455    0.06345    1.000
    Si1809   Si       0.26319    0.28446    0.11561    1.000
    N1810    N        0.23965    0.28230    0.15086    1.000
    N1811    N        0.41100    0.28916    0.05166    1.000
    Si1812   Si       0.38141    0.26212    0.03567    1.000
    Si1813   Si       0.43094    0.29744    0.09081    1.000
    N1814    N        0.25395    0.25596    0.22034    1.000
    Si1815   Si       0.32902    0.25800    0.15080    1.000
    N1816    N        0.31732    0.27852    0.18655    1.000
    Si1817   Si       0.29774    0.25696    0.21857    1.000
    Si1818   Si       0.24105    0.24746    0.17728    1.000
    N1819    N        0.41403    0.28566    0.18772    1.000
    Si1820   Si       0.47479    0.27231    0.15119    1.000
    N1821    N        0.36488    0.27929    0.13728    1.000
    Si1822   Si       0.40017    0.26972    0.22567    1.000
    Si1823   Si       0.40398    0.26590    0.14999    1.000
    N1824    N        0.44047    0.27388    0.12517    1.000
    Si1825   Si       0.34681    0.28100    0.28125    1.000
    N1826    N        0.25571    0.28725    0.33907    1.000
    Si1827   Si       0.27773    0.28365    0.29793    1.000
    N1828    N        0.31567    0.28471    0.31512    1.000
    N1829    N        0.24886    0.25156    0.28863    1.000
    N1830    N        0.30561    0.28346    0.25506    1.000
    Si1831   Si       0.28545    0.26914    0.36418    1.000
    N1832    N        0.42088    0.26982    0.32423    1.000
    Si1833   Si       0.46345    0.26955    0.32200    1.000
    N1834    N        0.47548    0.26581    0.36201    1.000
    Si1835   Si       0.46469    0.29695    0.25347    1.000
    N1836    N        0.43801    0.26250    0.25113    1.000
    N1837    N        0.32228    0.28631    0.37895    1.000
    N1838    N        0.26336    0.26182    0.40139    1.000
    N1839    N        0.31549    0.28430    0.44593    1.000
    N1840    N        0.25704    0.25972    0.47383    1.000
    Si1841   Si       0.32809    0.26024    0.41283    1.000
    Si1842   Si       0.27149    0.28086    0.43922    1.000
    Si1843   Si       0.46240    0.25820    0.40041    1.000
    N1844    N        0.37054    0.25349    0.41026    1.000
    Si1845   Si       0.38993    0.29193    0.40290    1.000
    N1846    N        0.44780    0.28717    0.47758    1.000
    N1847    N        0.42885    0.27871    0.41993    1.000
    N1848    N        0.37768    0.27485    0.48124    1.000
    Si1849   Si       0.41499    0.26343    0.45926    1.000
    N1850    N        0.37189    0.29630    0.24512    1.000
    Si1851   Si       0.29002    0.26534    0.54540    1.000
    N1852    N        0.29339    0.28882    0.58347    1.000
    N1853    N        0.32454    0.24531    0.52912    1.000
    Si1854   Si       0.24134    0.29036    0.50026    1.000
    Si1855   Si       0.29025    0.26885    0.62217    1.000
    Si1856   Si       0.36437    0.26042    0.52045    1.000
    N1857    N        0.41799    0.27418    0.58149    1.000
    N1858    N        0.36749    0.29761    0.54291    1.000
    N1859    N        0.30390    0.29059    0.65952    1.000
    Si1860   Si       0.27711    0.27148    0.69035    1.000
    Si1861   Si       0.34307    0.27118    0.65246    1.000
    N1862    N        0.30631    0.27085    0.72292    1.000
    Si1863   Si       0.34760    0.27992    0.72908    1.000
    N1864    N        0.36570    0.26766    0.69037    1.000
    N1865    N        0.37181    0.29483    0.62914    1.000
    N1866    N        0.47748    0.26450    0.71097    1.000
    Si1867   Si       0.41358    0.28186    0.62606    1.000
    N1868    N        0.43065    0.25708    0.65603    1.000
    Si1869   Si       0.40741    0.26634    0.69409    1.000
    N1870    N        0.24949    0.30267    0.70056    1.000
    N1871    N        0.29185    0.27148    0.83403    1.000
    Si1872   Si       0.28763    0.25469    0.75845    1.000
    N1873    N        0.26425    0.28892    0.77351    1.000
    Si1874   Si       0.32781    0.25395    0.81944    1.000
    N1875    N        0.35527    0.28838    0.81342    1.000
    Si1876   Si       0.25414    0.29010    0.81704    1.000
    N1877    N        0.37261    0.25638    0.75624    1.000
    Si1878   Si       0.38916    0.27345    0.79209    1.000
    Si1879   Si       0.43939    0.25954    0.84474    1.000
    N1880    N        0.48160    0.25736    0.83324    1.000
    N1881    N        0.41260    0.24486    0.81479    1.000
    N1882    N        0.42712    0.30066    0.85131    1.000
    Si1883   Si       0.40102    0.28091    0.94760    1.000
    N1884    N        0.35763    0.28013    0.94622    1.000
    N1885    N        0.30348    0.26725    0.91154    1.000
    Si1886   Si       0.28219    0.25594    0.87351    1.000
    Si1887   Si       0.33031    0.28180    0.97845    1.000
    Si1888   Si       0.34757    0.27444    0.90483    1.000
    N1889    N        0.30783    0.24389    0.98174    1.000
    N1890    N        0.24039    0.25711    0.87836    1.000
    Si1891   Si       0.34123    0.32475    0.03547    1.000
    N1892    N        0.26720    0.32313    0.09838    1.000
    N1893    N        0.30514    0.34954    0.02336    1.000
    N1894    N        0.33732    0.31306    0.07687    1.000
    Si1895   Si       0.29561    0.35393    0.11560    1.000
    Si1896   Si       0.35849    0.31831    0.11636    1.000
    N1897    N        0.37779    0.34542    0.03013    1.000
    Si1898   Si       0.41197    0.32226    0.02161    1.000
    N1899    N        0.44698    0.34897    0.02110    1.000
    N1900    N        0.39994    0.32448    0.10877    1.000
    N1901    N        0.47111    0.30872    0.07758    1.000
    Si1902   Si       0.48065    0.33245    0.04246    1.000
    Si1903   Si       0.32247    0.32332    0.18311    1.000
    N1904    N        0.32504    0.33397    0.13989    1.000
    N1905    N        0.28499    0.33502    0.20657    1.000
    N1906    N        0.35592    0.34502    0.20104    1.000
    Si1907   Si       0.25679    0.35818    0.18208    1.000
    Si1908   Si       0.43892    0.32088    0.19206    1.000
    N1909    N        0.44372    0.32942    0.23481    1.000
    N1910    N        0.47911    0.30730    0.17809    1.000
    N1911    N        0.41737    0.35331    0.17187    1.000
    Si1912   Si       0.41413    0.36014    0.12841    1.000
    N1913    N        0.25934    0.31782    0.27864    1.000
    N1914    N        0.32701    0.34644    0.26040    1.000
    N1915    N        0.31894    0.34725    0.34957    1.000
    Si1916   Si       0.33951    0.31014    0.34443    1.000
    Si1917   Si       0.28964    0.32524    0.24814    1.000
    N1918    N        0.36927    0.31046    0.30635    1.000
    Si1919   Si       0.46970    0.34404    0.31269    1.000
    N1920    N        0.43298    0.34098    0.33483    1.000
    Si1921   Si       0.40356    0.30890    0.33136    1.000
    N1922    N        0.47400    0.30250    0.29589    1.000
    N1923    N        0.37905    0.30642    0.36579    1.000
    N1924    N        0.25375    0.31897    0.43636    1.000
    Si1925   Si       0.35011    0.30473    0.46495    1.000
    N1926    N        0.33873    0.33643    0.49109    1.000
    N1927    N        0.44339    0.34697    0.43237    1.000
    Si1928   Si       0.45755    0.30752    0.43751    1.000
    N1929    N        0.37466    0.32003    0.43245    1.000
    Si1930   Si       0.39985    0.35420    0.43291    1.000
    Si1931   Si       0.36563    0.33914    0.24499    1.000
    Si1932   Si       0.28042    0.32566    0.56385    1.000
    N1933    N        0.31608    0.35124    0.56169    1.000
    Si1934   Si       0.34595    0.33581    0.53470    1.000
    N1935    N        0.24812    0.34815    0.57963    1.000
    N1936    N        0.27559    0.30139    0.52700    1.000
    N1937    N        0.38975    0.34314    0.58378    1.000
    N1938    N        0.43693    0.32547    0.53559    1.000
    Si1939   Si       0.40523    0.30872    0.56052    1.000
    Si1940   Si       0.46575    0.30763    0.50928    1.000
    Si1941   Si       0.33311    0.35819    0.73495    1.000
    N1942    N        0.26777    0.34433    0.64735    1.000
    Si1943   Si       0.30943    0.33296    0.65806    1.000
    N1944    N        0.33846    0.35370    0.63046    1.000
    N1945    N        0.32926    0.35386    0.69230    1.000
    N1946    N        0.35756    0.32039    0.74065    1.000
    Si1947   Si       0.23673    0.33680    0.67781    1.000
    N1948    N        0.47289    0.33677    0.73832    1.000
    Si1949   Si       0.46697    0.33258    0.63389    1.000
    Si1950   Si       0.38581    0.33983    0.62629    1.000
    N1951    N        0.48434    0.34383    0.49627    1.000
    N1952    N        0.48507    0.31469    0.66946    1.000
    N1953    N        0.42574    0.32295    0.63303    1.000
    N1954    N        0.42044    0.30321    0.71094    1.000
    Si1955   Si       0.40033    0.32590    0.74323    1.000
    Si1956   Si       0.46324    0.30613    0.70740    1.000
    Si1957   Si       0.23724    0.30357    0.74320    1.000
    Si1958   Si       0.35480    0.32246    0.83856    1.000
    N1959    N        0.24856    0.32735    0.83717    1.000
    Si1960   Si       0.28297    0.34929    0.85667    1.000
    N1961    N        0.32021    0.35060    0.83141    1.000
    Si1962   Si       0.42638    0.32846    0.81729    1.000
    N1963    N        0.38832    0.34955    0.82973    1.000
    N1964    N        0.46482    0.34803    0.81265    1.000
    N1965    N        0.41461    0.30763    0.78072    1.000
    Si1966   Si       0.48800    0.35187    0.77685    1.000
    N1967    N        0.41667    0.30254    0.98225    1.000
    N1968    N        0.29701    0.33215    0.89374    1.000
    N1969    N        0.29972    0.31079    0.96751    1.000
    Si1970   Si       0.28163    0.34647    0.98526    1.000
    Si1971   Si       0.28589    0.30778    0.92541    1.000
    N1972    N        0.47977    0.32864    0.94984    1.000
    N1973    N        0.23801    0.34005    0.98596    1.000
    N1974    N        0.42043    0.30773    0.92152    1.000
    N1975    N        0.36335    0.30469    0.87868    1.000
    Si1976   Si       0.43797    0.32738    0.95582    1.000
    Si1977   Si       0.40489    0.32026    0.88512    1.000
    N1978    N        0.24252    0.30475    0.92753    1.000
    N1979    N        0.31732    0.38308    0.08784    1.000
    Si1980   Si       0.30734    0.38889    0.04393    1.000
    N1981    N        0.34381    0.40383    0.02586    1.000
    Si1982   Si       0.35601    0.40046    0.09961    1.000
    Si1983   Si       0.38373    0.38791    0.03387    1.000
    N1984    N        0.41330    0.40621    0.00949    1.000
    N1985    N        0.39039    0.40709    0.07194    1.000
    Si1986   Si       0.48177    0.38886    0.08658    1.000
    N1987    N        0.44696    0.37200    0.10436    1.000
    N1988    N        0.26669    0.37212    0.14176    1.000
    N1989    N        0.25188    0.39582    0.20268    1.000
    N1990    N        0.31698    0.40989    0.22607    1.000
    N1991    N        0.37577    0.38008    0.13205    1.000
    Si1992   Si       0.26073    0.41683    0.14813    1.000
    Si1993   Si       0.27466    0.41581    0.23249    1.000
    Si1994   Si       0.47384    0.41644    0.19219    1.000
    N1995    N        0.37315    0.41199    0.19179    1.000
    Si1996   Si       0.37721    0.37300    0.17732    1.000
    N1997    N        0.44417    0.39885    0.22186    1.000
    N1998    N        0.27546    0.41431    0.03627    1.000
    N1999    N        0.27503    0.38900    0.26896    1.000
    Si2000   Si       0.31938    0.38883    0.26568    1.000
    N2001    N        0.27431    0.40112    0.33735    1.000
    Si2002   Si       0.24932    0.38944    0.30437    1.000
    N2003    N        0.34263    0.41062    0.29367    1.000
    Si2004   Si       0.30296    0.38305    0.36473    1.000
    Si2005   Si       0.38606    0.39802    0.29630    1.000
    N2006    N        0.46001    0.37816    0.28590    1.000
    N2007    N        0.39979    0.40558    0.34014    1.000
    Si2008   Si       0.42604    0.37543    0.36159    1.000
    N2009    N        0.39373    0.36820    0.26515    1.000
    Si2010   Si       0.43420    0.36711    0.25181    1.000
    Si2011   Si       0.48085    0.41632    0.29017    1.000
    N2012    N        0.33300    0.41266    0.37487    1.000
    N2013    N        0.28362    0.38179    0.40497    1.000
    N2014    N        0.26704    0.39452    0.46324    1.000
    Si2015   Si       0.35804    0.37594    0.49052    1.000
    Si2016   Si       0.26077    0.36095    0.43451    1.000
    N2017    N        0.39068    0.38079    0.46399    1.000
    N2018    N        0.39884    0.37374    0.39473    1.000
    Si2019   Si       0.42404    0.40593    0.47394    1.000
    Si2020   Si       0.37596    0.40551    0.37611    1.000
    N2021    N        0.45930    0.41351    0.44616    1.000
    N2022    N        0.46454    0.38659    0.37867    1.000
    Si2023   Si       0.47218    0.37817    0.42219    1.000
    Si2024   Si       0.32638    0.37855    0.59679    1.000
    N2025    N        0.28989    0.39683    0.61076    1.000
    Si2026   Si       0.25612    0.37124    0.61664    1.000
    Si2027   Si       0.24866    0.40917    0.49881    1.000
    N2028    N        0.33340    0.40890    0.50086    1.000
    N2029    N        0.36327    0.40167    0.58904    1.000
    Si2030   Si       0.39511    0.38199    0.56517    1.000
    N2031    N        0.43952    0.38427    0.56659    1.000
    N2032    N        0.45148    0.40094    0.50788    1.000
    Si2033   Si       0.47815    0.38528    0.58719    1.000
    N2034    N        0.37607    0.36699    0.52872    1.000
    Si2035   Si       0.45986    0.36288    0.53129    1.000
    Si2036   Si       0.35323    0.37811    0.66640    1.000
    Si2037   Si       0.24981    0.37369    0.73704    1.000
    N2038    N        0.32961    0.41592    0.66365    1.000
    N2039    N        0.47501    0.37430    0.62917    1.000
    Si2040   Si       0.48526    0.39175    0.66770    1.000
    N2041    N        0.37581    0.41063    0.70809    1.000
    N2042    N        0.44949    0.38978    0.69297    1.000
    Si2043   Si       0.41219    0.40612    0.68098    1.000
    Si2044   Si       0.45317    0.37605    0.73271    1.000
    N2045    N        0.39317    0.37566    0.65417    1.000
    N2046    N        0.41167    0.36911    0.74488    1.000
    Si2047   Si       0.33381    0.38639    0.80988    1.000
    N2048    N        0.35191    0.38113    0.76811    1.000
    N2049    N        0.35832    0.40829    0.84042    1.000
    N2050    N        0.30298    0.41165    0.79664    1.000
    Si2051   Si       0.29269    0.41522    0.75554    1.000
    N2052    N        0.31853    0.41742    0.90396    1.000
    N2053    N        0.26598    0.38698    0.87086    1.000
    Si2054   Si       0.46850    0.37548    0.84452    1.000
    Si2055   Si       0.39564    0.38797    0.85108    1.000
    N2056    N        0.43359    0.40445    0.84199    1.000
    N2057    N        0.47736    0.39402    0.76385    1.000
    Si2058   Si       0.38380    0.40264    0.75100    1.000
    Si2059   Si       0.24669    0.39938    0.95602    1.000
    Si2060   Si       0.31820    0.40227    0.94421    1.000
    N2061    N        0.28561    0.38110    0.96064    1.000
    N2062    N        0.35588    0.37889    0.94952    1.000
    N2063    N        0.39913    0.36425    0.89114    1.000
    N2064    N        0.42734    0.36870    0.95796    1.000
    Si2065   Si       0.39362    0.38213    0.93246    1.000
    N2066    N        0.48504    0.40135    0.99395    1.000
    N2067    N        0.48579    0.36517    0.88213    1.000
    Si2068   Si       0.44461    0.38254    0.99445    1.000
    N2069    N        0.29304    0.37332    0.74250    1.000
    Si2070   Si       0.27626    0.45811    0.03130    1.000
    Si2071   Si       0.34157    0.44274    0.00337    1.000
    N2072    N        0.34412    0.44321    0.10749    1.000
    N2073    N        0.32037    0.46782    0.03092    1.000
    N2074    N        0.26730    0.43970    0.10992    1.000
    N2075    N        0.48466    0.46334    0.13480    1.000
    N2076    N        0.46898    0.42930    0.07768    1.000
    N2077    N        0.41494    0.45725    0.10962    1.000
    N2078    N        0.42910    0.46268    0.04009    1.000
    Si2079   Si       0.42471    0.43474    0.07350    1.000
    Si2080   Si       0.41652    0.44875    0.00259    1.000
    Si2081   Si       0.37397    0.47386    0.10663    1.000
    Si2082   Si       0.30484    0.45346    0.12403    1.000
    N2083    N        0.30262    0.42776    0.16058    1.000
    Si2084   Si       0.33313    0.43092    0.19062    1.000
    N2085    N        0.27387    0.45928    0.23617    1.000
    N2086    N        0.33523    0.47305    0.19780    1.000
    Si2087   Si       0.41346    0.42335    0.20052    1.000
    N2088    N        0.41932    0.46109    0.22107    1.000
    N2089    N        0.43857    0.42808    0.16618    1.000
    Si2090   Si       0.44177    0.46428    0.14041    1.000
    Si2091   Si       0.23461    0.45804    0.08904    1.000
    Si2092   Si       0.33824    0.45331    0.30064    1.000
    Si2093   Si       0.26241    0.44334    0.32741    1.000
    N2094    N        0.29935    0.46124    0.31476    1.000
    N2095    N        0.23748    0.46023    0.35589    1.000
    N2096    N        0.36583    0.46317    0.33074    1.000
    Si2097   Si       0.47934    0.46541    0.34946    1.000
    Si2098   Si       0.40698    0.44969    0.32741    1.000
    Si2099   Si       0.42417    0.46261    0.26432    1.000
    N2100    N        0.40288    0.43503    0.28630    1.000
    N2101    N        0.46618    0.45429    0.27183    1.000
    N2102    N        0.43655    0.47220    0.34500    1.000
    N2103    N        0.37705    0.43616    0.40839    1.000
    N2104    N        0.24053    0.43704    0.41894    1.000
    N2105    N        0.31205    0.44569    0.43394    1.000
    Si2106   Si       0.33694    0.44876    0.39951    1.000
    Si2107   Si       0.47989    0.42963    0.48606    1.000
    N2108    N        0.48662    0.46909    0.46379    1.000
    Si2109   Si       0.39620    0.46434    0.43630    1.000
    Si2110   Si       0.46758    0.45311    0.42667    1.000
    N2111    N        0.40520    0.44582    0.47601    1.000
    Si2112   Si       0.32561    0.47717    0.45877    1.000
    Si2113   Si       0.27825    0.41992    0.42973    1.000
    N2114    N        0.33267    0.45211    0.56185    1.000
    N2115    N        0.27268    0.43790    0.51966    1.000
    Si2116   Si       0.31624    0.44189    0.52182    1.000
    Si2117   Si       0.25215    0.47550    0.52653    1.000
    N2118    N        0.29343    0.46364    0.61884    1.000
    N2119    N        0.33082    0.47651    0.50110    1.000
    Si2120   Si       0.44777    0.42541    0.54474    1.000
    Si2121   Si       0.37430    0.44377    0.57308    1.000
    N2122    N        0.45711    0.46172    0.52200    1.000
    N2123    N        0.40233    0.43082    0.54486    1.000
    N2124    N        0.38893    0.47117    0.60328    1.000
    N2125    N        0.48595    0.42419    0.57079    1.000
    Si2126   Si       0.41248    0.47033    0.51117    1.000
    N2127    N        0.31329    0.44147    0.72815    1.000
    Si2128   Si       0.25552    0.47028    0.63696    1.000
    Si2129   Si       0.34430    0.43863    0.69705    1.000
    N2130    N        0.25914    0.43572    0.66351    1.000
    Si2131   Si       0.29486    0.42736    0.64046    1.000
    N2132    N        0.36236    0.47486    0.67860    1.000
    Si2133   Si       0.45963    0.45517    0.68144    1.000
    N2134    N        0.42178    0.44441    0.66307    1.000
    N2135    N        0.46209    0.45307    0.72725    1.000
    Si2136   Si       0.39238    0.47454    0.64792    1.000
    N2137    N        0.29666    0.45004    0.85621    1.000
    Si2138   Si       0.28267    0.44753    0.81519    1.000
    Si2139   Si       0.33777    0.43311    0.86748    1.000
    N2140    N        0.24026    0.44587    0.81204    1.000
    N2141    N        0.45913    0.45449    0.79144    1.000
    N2142    N        0.39667    0.44218    0.76669    1.000
    Si2143   Si       0.45918    0.43774    0.83344    1.000
    Si2144   Si       0.48450    0.43597    0.76115    1.000
    Si2145   Si       0.43174    0.46522    0.75688    1.000
    N2146    N        0.31762    0.43962    0.96825    1.000
    N2147    N        0.25981    0.43532    0.93347    1.000
    Si2148   Si       0.28369    0.46363    0.95986    1.000
    Si2149   Si       0.27738    0.42838    0.88887    1.000
    N2150    N        0.44016    0.47786    0.84792    1.000
    N2151    N        0.29422    0.47468    0.78308    1.000
    Si2152   Si       0.43554    0.44498    0.93268    1.000
    N2153    N        0.39575    0.42626    0.92585    1.000
    N2154    N        0.36106    0.46741    0.87646    1.000
    N2155    N        0.44766    0.45794    0.97247    1.000
    Si2156   Si       0.37943    0.46477    0.91558    1.000
    N2157    N        0.46881    0.42761    0.91183    1.000
    N2158    N        0.24882    0.41554    0.75185    1.000
    N2159    N        0.37727    0.46256    0.99115    1.000
    Si2160   Si       0.33634    0.50688    0.04141    1.000
    Si2161   Si       0.26272    0.52507    0.05688    1.000
    N2162    N        0.34580    0.52369    0.00089    1.000
    N2163    N        0.25664    0.48251    0.06197    1.000
    N2164    N        0.30640    0.53287    0.05763    1.000
    N2165    N        0.36715    0.50074    0.07091    1.000
    Si2166   Si       0.46828    0.48584    0.03861    1.000
    N2167    N        0.46371    0.51816    0.01174    1.000
    N2168    N        0.42125    0.52751    0.10267    1.000
    N2169    N        0.47882    0.49689    0.07842    1.000
    Si2170   Si       0.46335    0.53395    0.09214    1.000
    Si2171   Si       0.33774    0.50306    0.16606    1.000
    N2172    N        0.30092    0.52189    0.22564    1.000
    N2173    N        0.31007    0.49404    0.13511    1.000
    Si2174   Si       0.31043    0.48046    0.23332    1.000
    Si2175   Si       0.45198    0.48526    0.20531    1.000
    N2176    N        0.37399    0.49858    0.14288    1.000
    N2177    N        0.44030    0.49897    0.16679    1.000
    Si2178   Si       0.41011    0.52199    0.14525    1.000
    N2179    N        0.46912    0.51197    0.23578    1.000
    Si2180   Si       0.38603    0.53723    0.07982    1.000
    Si2181   Si       0.35459    0.49884    0.34998    1.000
    N2182    N        0.35616    0.52483    0.31567    1.000
    N2183    N        0.34104    0.47959    0.26636    1.000
    Si2184   Si       0.37011    0.50974    0.27506    1.000
    N2185    N        0.41082    0.50158    0.27593    1.000
    Si2186   Si       0.44627    0.52907    0.26966    1.000
    N2187    N        0.32631    0.48643    0.38192    1.000
    N2188    N        0.29642    0.50697    0.44842    1.000
    N2189    N        0.26096    0.50739    0.39121    1.000
    Si2190   Si       0.30081    0.51223    0.40520    1.000
    Si2191   Si       0.27450    0.52879    0.47817    1.000
    N2192    N        0.44949    0.53586    0.38201    1.000
    N2193    N        0.36165    0.48942    0.43937    1.000
    Si2194   Si       0.36346    0.52600    0.41331    1.000
    N2195    N        0.41827    0.50761    0.48689    1.000
    N2196    N        0.38630    0.51138    0.37797    1.000
    N2197    N        0.43360    0.47718    0.41940    1.000
    Si2198   Si       0.42827    0.49988    0.38135    1.000
    Si2199   Si       0.46252    0.50471    0.47722    1.000
    Si2200   Si       0.35270    0.50219    0.52944    1.000
    N2201    N        0.27377    0.49460    0.56163    1.000
    N2202    N        0.33248    0.51812    0.56557    1.000
    Si2203   Si       0.30879    0.48122    0.58304    1.000
    N2204    N        0.45393    0.51039    0.57413    1.000
    Si2205   Si       0.41064    0.50462    0.58314    1.000
    N2206    N        0.39273    0.49271    0.54426    1.000
    Si2207   Si       0.48154    0.49241    0.54518    1.000
    N2208    N        0.24410    0.50992    0.64974    1.000
    N2209    N        0.29319    0.51632    0.72779    1.000
    Si2210   Si       0.25192    0.52429    0.73960    1.000
    N2211    N        0.48840    0.51737    0.50900    1.000
    Si2212   Si       0.43537    0.52501    0.67435    1.000
    Si2213   Si       0.37104    0.50740    0.70661    1.000
    N2214    N        0.46770    0.49430    0.66959    1.000
    N2215    N        0.40333    0.51675    0.64629    1.000
    N2216    N        0.41423    0.51157    0.71046    1.000
    N2217    N        0.24459    0.49959    0.49250    1.000
    Si2218   Si       0.31288    0.48197    0.74628    1.000
    N2219    N        0.41896    0.48057    0.91539    1.000
    N2220    N        0.36378    0.49696    0.81544    1.000
    N2221    N        0.46512    0.52835    0.88796    1.000
    Si2222   Si       0.36437    0.50774    0.85692    1.000
    Si2223   Si       0.44624    0.49695    0.80953    1.000
    N2224    N        0.41847    0.50173    0.77474    1.000
    Si2225   Si       0.37920    0.48164    0.77857    1.000
    N2226    N        0.46793    0.53322    0.81750    1.000
    N2227    N        0.33180    0.52980    0.87430    1.000
    Si2228   Si       0.32519    0.51997    0.91700    1.000
    N2229    N        0.29080    0.49700    0.93017    1.000
    Si2230   Si       0.25537    0.52487    0.92472    1.000
    N2231    N        0.26325    0.47932    0.99499    1.000
    N2232    N        0.35751    0.49645    0.93695    1.000
    Si2233   Si       0.43098    0.50263    0.88039    1.000
    N2234    N        0.40999    0.52015    0.97806    1.000
    N2235    N        0.40010    0.53001    0.86615    1.000
    Si2236   Si       0.37149    0.50040    0.97626    1.000
    Si2237   Si       0.44922    0.50401    0.97418    1.000
    Si2238   Si       0.42428    0.53463    0.74521    1.000
    N2239    N        0.35615    0.48970    0.74338    1.000
    Si2240   Si       0.32008    0.56665    0.08071    1.000
    Si2241   Si       0.25497    0.58229    0.09800    1.000
    N2242    N        0.29454    0.58272    0.11406    1.000
    N2243    N        0.24112    0.54071    0.09196    1.000
    N2244    N        0.35607    0.55881    0.10545    1.000
    Si2245   Si       0.37111    0.59434    0.03506    1.000
    N2246    N        0.40033    0.56212    0.16065    1.000
    N2247    N        0.46709    0.56355    0.06060    1.000
    Si2248   Si       0.47031    0.56019    0.01864    1.000
    N2249    N        0.39360    0.55792    0.04227    1.000
    Si2250   Si       0.40387    0.55828    0.00051    1.000
    N2251    N        0.47647    0.56371    0.12133    1.000
    N2252    N        0.44039    0.57849    0.99332    1.000
    N2253    N        0.29654    0.57597    0.99472    1.000
    N2254    N        0.24983    0.57845    0.21795    1.000
    N2255    N        0.33669    0.54512    0.17653    1.000
    Si2256   Si       0.26069    0.53770    0.23150    1.000
    Si2257   Si       0.35751    0.56824    0.14740    1.000
    Si2258   Si       0.33131    0.55201    0.22019    1.000
    N2259    N        0.45703    0.59380    0.18774    1.000
    N2260    N        0.26356    0.59023    0.05515    1.000
    Si2261   Si       0.47119    0.59092    0.22830    1.000
    Si2262   Si       0.48466    0.59078    0.15507    1.000
    Si2263   Si       0.48254    0.59290    0.08756    1.000
    N2264    N        0.36875    0.54198    0.24396    1.000
    N2265    N        0.28067    0.55429    0.34378    1.000
    Si2266   Si       0.28239    0.56355    0.30165    1.000
    N2267    N        0.31925    0.57015    0.28176    1.000
    Si2268   Si       0.35404    0.56761    0.30640    1.000
    N2269    N        0.25434    0.54212    0.27648    1.000
    N2270    N        0.34320    0.59026    0.34110    1.000
    Si2271   Si       0.24710    0.53895    0.36513    1.000
    Si2272   Si       0.31257    0.57358    0.36624    1.000
    N2273    N        0.39208    0.58081    0.29193    1.000
    Si2274   Si       0.42769    0.58700    0.31585    1.000
    N2275    N        0.44888    0.54677    0.31058    1.000
    Si2276   Si       0.39826    0.57360    0.24952    1.000
    N2277    N        0.43899    0.56735    0.24858    1.000
    Si2278   Si       0.47247    0.53700    0.34553    1.000
    N2279    N        0.25767    0.56454    0.45878    1.000
    N2280    N        0.32880    0.54663    0.39848    1.000
    N2281    N        0.43210    0.59475    0.42101    1.000
    N2282    N        0.39488    0.54535    0.43673    1.000
    N2283    N        0.40756    0.58450    0.48891    1.000
    N2284    N        0.46581    0.53736    0.44752    1.000
    Si2285   Si       0.39303    0.54288    0.48080    1.000
    Si2286   Si       0.43560    0.55191    0.42090    1.000
    Si2287   Si       0.32848    0.56776    0.51747    1.000
    N2288    N        0.31091    0.57656    0.55919    1.000
    Si2289   Si       0.35205    0.55741    0.57541    1.000
    N2290    N        0.27377    0.54718    0.60149    1.000
    N2291    N        0.29077    0.54034    0.51539    1.000
    Si2292   Si       0.28826    0.53846    0.55948    1.000
    N2293    N        0.39531    0.58173    0.65934    1.000
    N2294    N        0.34169    0.56187    0.61846    1.000
    Si2295   Si       0.37979    0.54970    0.63252    1.000
    N2296    N        0.36497    0.59151    0.54151    1.000
    N2297    N        0.39478    0.54753    0.59081    1.000
    Si2298   Si       0.42480    0.57933    0.58919    1.000
    N2299    N        0.46116    0.57286    0.61247    1.000
    Si2300   Si       0.48243    0.53900    0.59235    1.000
    N2301    N        0.44099    0.59356    0.55156    1.000
    N2302    N        0.35151    0.54512    0.70062    1.000
    Si2303   Si       0.30135    0.56902    0.62655    1.000
    Si2304   Si       0.31004    0.55415    0.70911    1.000
    Si2305   Si       0.25386    0.57768    0.67679    1.000
    N2306    N        0.29339    0.56149    0.66920    1.000
    N2307    N        0.46259    0.55854    0.67952    1.000
    Si2308   Si       0.38082    0.57764    0.69839    1.000
    N2309    N        0.40921    0.57249    0.73263    1.000
    Si2310   Si       0.46935    0.59094    0.65144    1.000
    N2311    N        0.35899    0.53731    0.50455    1.000
    Si2312   Si       0.28271    0.57591    0.77907    1.000
    N2313    N        0.29983    0.57444    0.81961    1.000
    Si2314   Si       0.32557    0.56826    0.85308    1.000
    N2315    N        0.25262    0.54091    0.78014    1.000
    Si2316   Si       0.39967    0.57253    0.86879    1.000
    N2317    N        0.36709    0.58208    0.84209    1.000
    Si2318   Si       0.47056    0.55574    0.85357    1.000
    Si2319   Si       0.47226    0.56606    0.78720    1.000
    N2320    N        0.44088    0.58692    0.86108    1.000
    N2321    N        0.46532    0.54747    0.74905    1.000
    N2322    N        0.36776    0.58629    0.99111    1.000
    N2323    N        0.31111    0.57971    0.74498    1.000
    Si2324   Si       0.25876    0.58175    0.97348    1.000
    N2325    N        0.24272    0.54385    0.96142    1.000
    N2326    N        0.26977    0.55268    0.89609    1.000
    N2327    N        0.33347    0.55959    0.93496    1.000
    Si2328   Si       0.33351    0.56042    0.97857    1.000
    N2329    N        0.28526    0.64126    0.01016    1.000
    Si2330   Si       0.29452    0.60356    0.02907    1.000
    N2331    N        0.33148    0.59522    0.05139    1.000
    Si2332   Si       0.24297    0.65206    0.00837    1.000
    N2333    N        0.45421    0.64654    0.00261    1.000
    N2334    N        0.39584    0.62733    0.04040    1.000
    N2335    N        0.46335    0.62917    0.07133    1.000
    Si2336   Si       0.43635    0.64321    0.04118    1.000
    N2337    N        0.31696    0.59457    0.22348    1.000
    Si2338   Si       0.35410    0.62189    0.22664    1.000
    Si2339   Si       0.30570    0.62047    0.13339    1.000
    Si2340   Si       0.27876    0.60860    0.20769    1.000
    N2341    N        0.34603    0.61062    0.14724    1.000
    N2342    N        0.27569    0.62409    0.16714    1.000
    N2343    N        0.27517    0.63805    0.24008    1.000
    N2344    N        0.47784    0.62773    0.13351    1.000
    Si2345   Si       0.41570    0.59652    0.18180    1.000
    Si2346   Si       0.36895    0.64497    0.15616    1.000
    N2347    N        0.38939    0.59983    0.21716    1.000
    N2348    N        0.40901    0.63159    0.15719    1.000
    Si2349   Si       0.25808    0.63863    0.31882    1.000
    Si2350   Si       0.30472    0.61139    0.26543    1.000
    N2351    N        0.34454    0.63214    0.26848    1.000
    N2352    N        0.27328    0.60667    0.29604    1.000
    Si2353   Si       0.37325    0.62148    0.34842    1.000
    N2354    N        0.45796    0.61886    0.31255    1.000
    N2355    N        0.41221    0.60205    0.35321    1.000
    Si2356   Si       0.46095    0.65414    0.28472    1.000
    Si2357   Si       0.30824    0.64176    0.37366    1.000
    Si2358   Si       0.27046    0.60204    0.47707    1.000
    N2359    N        0.34926    0.64217    0.38104    1.000
    Si2360   Si       0.24834    0.60776    0.38506    1.000
    N2361    N        0.29099    0.60584    0.38503    1.000
    Si2362   Si       0.32960    0.62893    0.47183    1.000
    N2363    N        0.28857    0.63872    0.45604    1.000
    N2364    N        0.47829    0.62309    0.37738    1.000
    Si2365   Si       0.40679    0.61152    0.45454    1.000
    N2366    N        0.42997    0.64556    0.47138    1.000
    N2367    N        0.36617    0.62758    0.44705    1.000
    Si2368   Si       0.43472    0.61978    0.38617    1.000
    N2369    N        0.37667    0.65573    0.32334    1.000
    N2370    N        0.31268    0.59300    0.48748    1.000
    N2371    N        0.46736    0.63219    0.24526    1.000
    Si2372   Si       0.30069    0.61513    0.57722    1.000
    N2373    N        0.27003    0.63517    0.55451    1.000
    N2374    N        0.33552    0.64303    0.58108    1.000
    Si2375   Si       0.35655    0.63397    0.54445    1.000
    N2376    N        0.28418    0.60851    0.61781    1.000
    Si2377   Si       0.40301    0.62083    0.64093    1.000
    N2378    N        0.48933    0.63492    0.52524    1.000
    N2379    N        0.39735    0.64343    0.53397    1.000
    N2380    N        0.40666    0.61989    0.59804    1.000
    Si2381   Si       0.48615    0.60676    0.55873    1.000
    Si2382   Si       0.40563    0.59902    0.52882    1.000
    N2383    N        0.25223    0.62093    0.67804    1.000
    Si2384   Si       0.25377    0.63360    0.63620    1.000
    N2385    N        0.36168    0.61655    0.70823    1.000
    N2386    N        0.44313    0.62734    0.65362    1.000
    N2387    N        0.37024    0.64665    0.64698    1.000
    N2388    N        0.25512    0.61005    0.77994    1.000
    Si2389   Si       0.31604    0.64730    0.86116    1.000
    N2390    N        0.33905    0.64948    0.82530    1.000
    Si2391   Si       0.25186    0.65066    0.76299    1.000
    Si2392   Si       0.34204    0.61162    0.74761    1.000
    N2393    N        0.32475    0.65085    0.75796    1.000
    N2394    N        0.37390    0.60775    0.77764    1.000
    Si2395   Si       0.36963    0.61877    0.81864    1.000
    N2396    N        0.40471    0.63944    0.83359    1.000
    Si2397   Si       0.44159    0.61861    0.83050    1.000
    Si2398   Si       0.41304    0.60519    0.75913    1.000
    N2399    N        0.47465    0.64605    0.83577    1.000
    N2400    N        0.45105    0.60798    0.93278    1.000
    Si2401   Si       0.41674    0.62589    0.91354    1.000
    N2402    N        0.40374    0.64030    0.95675    1.000
    N2403    N        0.33390    0.62755    0.94336    1.000
    N2404    N        0.31589    0.60432    0.88211    1.000
    N2405    N        0.24326    0.61631    0.87568    1.000
    N2406    N        0.26609    0.60618    0.93739    1.000
    Si2407   Si       0.43946    0.61622    0.97332    1.000
    Si2408   Si       0.36498    0.62820    0.97555    1.000
    Si2409   Si       0.27581    0.59493    0.89743    1.000
    N2410    N        0.38661    0.59684    0.90371    1.000
    Si2411   Si       0.34539    0.59633    0.91445    1.000
    N2412    N        0.44030    0.59665    0.79203    1.000
    N2413    N        0.42053    0.64291    0.74367    1.000
    Si2414   Si       0.33445    0.68591    0.10248    1.000
    N2415    N        0.31076    0.70387    0.02413    1.000
    N2416    N        0.24119    0.67594    0.04945    1.000
    Si2417   Si       0.26911    0.70451    0.03022    1.000
    Si2418   Si       0.31434    0.67403    0.99628    1.000
    N2419    N        0.24210    0.70801    0.11001    1.000
    N2420    N        0.35452    0.65969    0.00190    1.000
    Si2421   Si       0.44250    0.70877    0.19723    1.000
    N2422    N        0.30942    0.65155    0.10722    1.000
    N2423    N        0.36004    0.69645    0.06798    1.000
    Si2424   Si       0.37566    0.66590    0.04095    1.000
    N2425    N        0.41847    0.68329    0.05212    1.000
    Si2426   Si       0.47975    0.65790    0.10067    1.000
    N2427    N        0.45118    0.68591    0.11788    1.000
    Si2428   Si       0.40023    0.71191    0.07900    1.000
    N2429    N        0.35579    0.65452    0.19858    1.000
    Si2430   Si       0.48776    0.65731    0.21506    1.000
    N2431    N        0.36128    0.68492    0.13744    1.000
    Si2432   Si       0.36715    0.69031    0.21593    1.000
    N2433    N        0.45984    0.67036    0.18534    1.000
    N2434    N        0.39918    0.70915    0.19148    1.000
    N2435    N        0.45349    0.70826    0.23987    1.000
    Si2436   Si       0.44559    0.65291    0.15060    1.000
    N2437    N        0.32274    0.69470    0.28819    1.000
    Si2438   Si       0.27513    0.69512    0.35666    1.000
    Si2439   Si       0.35738    0.66809    0.28730    1.000
    Si2440   Si       0.24324    0.66657    0.25102    1.000
    N2441    N        0.28935    0.65778    0.33882    1.000
    Si2442   Si       0.46305    0.66158    0.44839    1.000
    N2443    N        0.38565    0.69767    0.48761    1.000
    N2444    N        0.43028    0.68351    0.29773    1.000
    Si2445   Si       0.40068    0.69016    0.32973    1.000
    N2446    N        0.38355    0.68370    0.25471    1.000
    N2447    N        0.42595    0.70559    0.36033    1.000
    Si2448   Si       0.41804    0.70913    0.26451    1.000
    Si2449   Si       0.43629    0.69388    0.40025    1.000
    Si2450   Si       0.32206    0.70000    0.41839    1.000
    N2451    N        0.28939    0.67785    0.39791    1.000
    Si2452   Si       0.26551    0.66547    0.43254    1.000
    N2453    N        0.24686    0.70107    0.44608    1.000
    N2454    N        0.31642    0.70544    0.46136    1.000
    N2455    N        0.36414    0.69548    0.42215    1.000
    N2456    N        0.41577    0.65560    0.40298    1.000
    N2457    N        0.47697    0.67939    0.41173    1.000
    N2458    N        0.47860    0.68755    0.48087    1.000
    Si2459   Si       0.37383    0.65438    0.41326    1.000
    N2460    N        0.26303    0.70522    0.24202    1.000
    N2461    N        0.27450    0.68916    0.50422    1.000
    Si2462   Si       0.25911    0.67731    0.54222    1.000
    Si2463   Si       0.35454    0.66786    0.61191    1.000
    Si2464   Si       0.31765    0.68682    0.50179    1.000
    Si2465   Si       0.25735    0.70675    0.60833    1.000
    N2466    N        0.27778    0.70439    0.56912    1.000
    Si2467   Si       0.47643    0.67708    0.52304    1.000
    N2468    N        0.38957    0.68636    0.59048    1.000
    N2469    N        0.43690    0.69066    0.53336    1.000
    Si2470   Si       0.41412    0.66972    0.50312    1.000
    N2471    N        0.45580    0.66600    0.59414    1.000
    Si2472   Si       0.41775    0.65556    0.57424    1.000
    N2473    N        0.33121    0.70114    0.62560    1.000
    N2474    N        0.26853    0.67422    0.63284    1.000
    N2475    N        0.32151    0.66921    0.68570    1.000
    Si2476   Si       0.30875    0.67465    0.72511    1.000
    Si2477   Si       0.29926    0.69368    0.65823    1.000
    N2478    N        0.26626    0.67173    0.72664    1.000
    Si2479   Si       0.36324    0.65581    0.68876    1.000
    Si2480   Si       0.44140    0.67968    0.74168    1.000
    N2481    N        0.45637    0.68828    0.70170    1.000
    Si2482   Si       0.45481    0.66653    0.63721    1.000
    Si2483   Si       0.42164    0.70747    0.68398    1.000
    N2484    N        0.42556    0.69497    0.64389    1.000
    N2485    N        0.38557    0.69138    0.70175    1.000
    Si2486   Si       0.37242    0.71322    0.73763    1.000
    N2487    N        0.33550    0.64997    0.51001    1.000
    Si2488   Si       0.33665    0.67481    0.79072    1.000
    Si2489   Si       0.26878    0.69979    0.82269    1.000
    N2490    N        0.27848    0.67047    0.85127    1.000
    N2491    N        0.24177    0.68130    0.79164    1.000
    N2492    N        0.30502    0.70553    0.79795    1.000
    N2493    N        0.37198    0.69908    0.78262    1.000
    N2494    N        0.43585    0.69757    0.82069    1.000
    Si2495   Si       0.47404    0.68280    0.80935    1.000
    Si2496   Si       0.41380    0.67882    0.85255    1.000
    N2497    N        0.47650    0.67369    0.76638    1.000
    N2498    N        0.38493    0.71169    0.86216    1.000
    Si2499   Si       0.30731    0.66044    0.92891    1.000
    N2500    N        0.25462    0.69343    0.99017    1.000
    N2501    N        0.26703    0.67053    0.91739    1.000
    N2502    N        0.33258    0.66958    0.89398    1.000
    N2503    N        0.30941    0.69238    0.95708    1.000
    Si2504   Si       0.26321    0.70358    0.94767    1.000
    Si2505   Si       0.24758    0.65984    0.88038    1.000
    Si2506   Si       0.35919    0.70357    0.89664    1.000
    N2507    N        0.38422    0.70301    0.93397    1.000
    Si2508   Si       0.41484    0.68197    0.95685    1.000
    Si2509   Si       0.48488    0.66805    0.97778    1.000
    N2510    N        0.42950    0.66088    0.89105    1.000
    N2511    N        0.45718    0.68282    0.94774    1.000
    Si2512   Si       0.46203    0.69026    0.90508    1.000
    N2513    N        0.41504    0.71411    0.98762    1.000
    Si2514   Si       0.27018    0.73819    0.09569    1.000
    N2515    N        0.26318    0.74282    0.05287    1.000
    Si2516   Si       0.33124    0.72871    0.05505    1.000
    N2517    N        0.31035    0.72268    0.09556    1.000
    N2518    N        0.34506    0.76738    0.04076    1.000
    N2519    N        0.47339    0.74885    0.09509    1.000
    N2520    N        0.41416    0.74297    0.05259    1.000
    N2521    N        0.47715    0.71837    0.03611    1.000
    Si2522   Si       0.43495    0.71497    0.02757    1.000
    Si2523   Si       0.25207    0.73918    0.21846    1.000
    N2524    N        0.28455    0.75301    0.19135    1.000
    Si2525   Si       0.32733    0.75188    0.20338    1.000
    N2526    N        0.35240    0.74978    0.16843    1.000
    N2527    N        0.33175    0.71573    0.22306    1.000
    N2528    N        0.40459    0.73302    0.11906    1.000
    Si2529   Si       0.44875    0.72812    0.12417    1.000
    N2530    N        0.45506    0.73696    0.16471    1.000
    Si2531   Si       0.38070    0.72153    0.15346    1.000
    N2532    N        0.25866    0.77282    0.12075    1.000
    N2533    N        0.29913    0.73045    0.34482    1.000
    N2534    N        0.29986    0.75397    0.27494    1.000
    Si2535   Si       0.32866    0.73133    0.31146    1.000
    N2536    N        0.40786    0.75047    0.27309    1.000
    Si2537   Si       0.44212    0.74276    0.34890    1.000
    Si2538   Si       0.38667    0.75979    0.31197    1.000
    N2539    N        0.36999    0.72110    0.32249    1.000
    N2540    N        0.47136    0.74397    0.31804    1.000
    N2541    N        0.28632    0.76239    0.47057    1.000
    Si2542   Si       0.29318    0.75877    0.37812    1.000
    N2543    N        0.31711    0.74195    0.41015    1.000
    Si2544   Si       0.32396    0.75133    0.45172    1.000
    Si2545   Si       0.26498    0.72385    0.48038    1.000
    N2546    N        0.25163    0.76311    0.38689    1.000
    N2547    N        0.36476    0.75186    0.47020    1.000
    Si2548   Si       0.38733    0.72091    0.45007    1.000
    N2549    N        0.42589    0.72446    0.43235    1.000
    Si2550   Si       0.45317    0.75718    0.42656    1.000
    N2551    N        0.46250    0.75976    0.38275    1.000
    Si2552   Si       0.30371    0.71389    0.25597    1.000
    N2553    N        0.41181    0.77366    0.34367    1.000
    Si2554   Si       0.30751    0.73610    0.56459    1.000
    N2555    N        0.34241    0.75744    0.58455    1.000
    N2556    N        0.33184    0.71946    0.52896    1.000
    N2557    N        0.27055    0.74757    0.61601    1.000
    Si2558   Si       0.36957    0.73051    0.50980    1.000
    Si2559   Si       0.43807    0.73255    0.54416    1.000
    N2560    N        0.39758    0.74785    0.53543    1.000
    N2561    N        0.43633    0.74154    0.58538    1.000
    N2562    N        0.46705    0.75358    0.52118    1.000
    Si2563   Si       0.40929    0.71729    0.61110    1.000
    Si2564   Si       0.34676    0.74360    0.62569    1.000
    Si2565   Si       0.25793    0.75153    0.70728    1.000
    N2566    N        0.28024    0.72698    0.67749    1.000
    Si2567   Si       0.28613    0.76460    0.65314    1.000
    N2568    N        0.32901    0.77179    0.65545    1.000
    N2569    N        0.32926    0.71244    0.73650    1.000
    N2570    N        0.42608    0.74850    0.69019    1.000
    N2571    N        0.37915    0.75713    0.73436    1.000
    N2572    N        0.38670    0.74714    0.63392    1.000
    Si2573   Si       0.42214    0.75968    0.73296    1.000
    Si2574   Si       0.30859    0.73385    0.76516    1.000
    N2575    N        0.24309    0.73214    0.84279    1.000
    N2576    N        0.34061    0.76710    0.84668    1.000
    N2577    N        0.27212    0.75022    0.74751    1.000
    N2578    N        0.32930    0.76878    0.77579    1.000
    N2579    N        0.40364    0.75768    0.80990    1.000
    Si2580   Si       0.38270    0.75414    0.84979    1.000
    N2581    N        0.42231    0.71825    0.75233    1.000
    Si2582   Si       0.40804    0.71852    0.79360    1.000
    N2583    N        0.34955    0.75146    0.97251    1.000
    N2584    N        0.27918    0.74868    0.95380    1.000
    Si2585   Si       0.31966    0.73364    0.94813    1.000
    N2586    N        0.33042    0.73488    0.90547    1.000
    Si2587   Si       0.32069    0.77301    0.88378    1.000
    Si2588   Si       0.43667    0.76729    0.90476    1.000
    Si2589   Si       0.38915    0.73734    0.96257    1.000
    N2590    N        0.41517    0.76716    0.94173    1.000
    N2591    N        0.45049    0.72963    0.89557    1.000
    Si2592   Si       0.25242    0.77468    0.84568    1.000
    Si2593   Si       0.24975    0.77405    0.96832    1.000
    N2594    N        0.25472    0.80122    0.00693    1.000
    Si2595   Si       0.35298    0.78295    0.00185    1.000
    Si2596   Si       0.35576    0.79670    0.07146    1.000
    N2597    N        0.35992    0.78374    0.11281    1.000
    N2598    N        0.40123    0.80368    0.07156    1.000
    N2599    N        0.46157    0.79031    0.03992    1.000
    Si2600   Si       0.41873    0.78299    0.03648    1.000
    Si2601   Si       0.47521    0.78782    0.07969    1.000
    N2602    N        0.39628    0.78941    0.00150    1.000
    Si2603   Si       0.40347    0.77801    0.10809    1.000
    Si2604   Si       0.48292    0.79919    0.00558    1.000
    N2605    N        0.46700    0.83089    0.09976    1.000
    N2606    N        0.24184    0.80756    0.17818    1.000
    Si2607   Si       0.27007    0.78048    0.16141    1.000
    N2608    N        0.34556    0.78417    0.22711    1.000
    N2609    N        0.30634    0.80324    0.15743    1.000
    Si2610   Si       0.34759    0.78987    0.15397    1.000
    N2611    N        0.24053    0.77444    0.24124    1.000
    N2612    N        0.37130    0.81994    0.17726    1.000
    Si2613   Si       0.37411    0.81656    0.22072    1.000
    Si2614   Si       0.45184    0.78111    0.17499    1.000
    N2615    N        0.43170    0.79221    0.13766    1.000
    N2616    N        0.42988    0.78049    0.21267    1.000
    Si2617   Si       0.34021    0.80971    0.33677    1.000
    Si2618   Si       0.32925    0.78879    0.26847    1.000
    N2619    N        0.29865    0.81957    0.26236    1.000
    Si2620   Si       0.26823    0.78511    0.27266    1.000
    N2621    N        0.25477    0.78924    0.31252    1.000
    N2622    N        0.34893    0.77863    0.30643    1.000
    N2623    N        0.46367    0.79644    0.27501    1.000
    Si2624   Si       0.42623    0.78252    0.25488    1.000
    N2625    N        0.39729    0.81438    0.25765    1.000
    Si2626   Si       0.40509    0.81051    0.36586    1.000
    Si2627   Si       0.23669    0.80073    0.40222    1.000
    N2628    N        0.44173    0.79640    0.43950    1.000
    N2629    N        0.31826    0.79405    0.37008    1.000
    Si2630   Si       0.34055    0.80999    0.40589    1.000
    Si2631   Si       0.28750    0.80320    0.46105    1.000
    N2632    N        0.33008    0.79637    0.44595    1.000
    N2633    N        0.26578    0.82071    0.42865    1.000
    Si2634   Si       0.35943    0.79712    0.48029    1.000
    N2635    N        0.44571    0.82581    0.37074    1.000
    N2636    N        0.38344    0.80616    0.40230    1.000
    Si2637   Si       0.40715    0.82199    0.43602    1.000
    Si2638   Si       0.47852    0.79802    0.37902    1.000
    N2639    N        0.38212    0.83232    0.47068    1.000
    N2640    N        0.37655    0.83257    0.34086    1.000
    Si2641   Si       0.30787    0.80553    0.53340    1.000
    N2642    N        0.34656    0.79313    0.52201    1.000
    N2643    N        0.26597    0.81010    0.61585    1.000
    Si2644   Si       0.25648    0.77762    0.58902    1.000
    N2645    N        0.29403    0.82759    0.49699    1.000
    N2646    N        0.46744    0.81238    0.69380    1.000
    Si2647   Si       0.43397    0.78535    0.59053    1.000
    N2648    N        0.40111    0.80727    0.57106    1.000
    N2649    N        0.47280    0.80385    0.57621    1.000
    Si2650   Si       0.37054    0.77710    0.55683    1.000
    Si2651   Si       0.24527    0.81667    0.65372    1.000
    N2652    N        0.26639    0.79110    0.68443    1.000
    Si2653   Si       0.34355    0.80678    0.67677    1.000
    N2654    N        0.32747    0.81056    0.71828    1.000
    Si2655   Si       0.28185    0.81591    0.71943    1.000
    N2656    N        0.38741    0.80636    0.68009    1.000
    Si2657   Si       0.45094    0.82386    0.73260    1.000
    Si2658   Si       0.45685    0.82287    0.65161    1.000
    N2659    N        0.43574    0.79167    0.63224    1.000
    Si2660   Si       0.40787    0.77504    0.66172    1.000
    N2661    N        0.28584    0.77271    0.55494    1.000
    Si2662   Si       0.31981    0.78547    0.81320    1.000
    N2663    N        0.27643    0.77974    0.80932    1.000
    Si2664   Si       0.25126    0.78007    0.77497    1.000
    N2665    N        0.25210    0.81393    0.75062    1.000
    Si2666   Si       0.38093    0.81439    0.89561    1.000
    N2667    N        0.33137    0.82817    0.81844    1.000
    N2668    N        0.39603    0.82949    0.93484    1.000
    N2669    N        0.43758    0.79179    0.75623    1.000
    N2670    N        0.37726    0.81706    0.77053    1.000
    Si2671   Si       0.44383    0.79773    0.85282    1.000
    Si2672   Si       0.41153    0.79795    0.79253    1.000
    N2673    N        0.42431    0.82564    0.82509    1.000
    N2674    N        0.47063    0.77329    0.83332    1.000
    Si2675   Si       0.27542    0.82333    0.89448    1.000
    N2676    N        0.27972    0.78528    0.87627    1.000
    Si2677   Si       0.32434    0.82014    0.94430    1.000
    N2678    N        0.34078    0.80144    0.90886    1.000
    N2679    N        0.33660    0.81738    0.98623    1.000
    N2680    N        0.28167    0.82414    0.93920    1.000
    N2681    N        0.45986    0.80318    0.89494    1.000
    N2682    N        0.40353    0.78071    0.87620    1.000
    Si2683   Si       0.41427    0.80302    0.96484    1.000
    N2684    N        0.45431    0.81414    0.97593    1.000
    Si2685   Si       0.35335    0.79037    0.74678    1.000
    Si2686   Si       0.32111    0.87023    0.06266    1.000
    N2687    N        0.28186    0.84916    0.05979    1.000
    Si2688   Si       0.26663    0.87191    0.09374    1.000
    Si2689   Si       0.26289    0.84191    0.02044    1.000
    N2690    N        0.34901    0.83949    0.07193    1.000
    N2691    N        0.33472    0.88857    0.02614    1.000
    Si2692   Si       0.39179    0.84660    0.08029    1.000
    N2693    N        0.40114    0.88547    0.06291    1.000
    N2694    N        0.26260    0.85512    0.13437    1.000
    N2695    N        0.33059    0.86674    0.14212    1.000
    N2696    N        0.29437    0.86666    0.19836    1.000
    Si2697   Si       0.29685    0.84654    0.16014    1.000
    Si2698   Si       0.31046    0.85342    0.23605    1.000
    N2699    N        0.35392    0.85546    0.23134    1.000
    N2700    N        0.39766    0.84655    0.12251    1.000
    Si2701   Si       0.38091    0.88764    0.21861    1.000
    Si2702   Si       0.45391    0.87095    0.20667    1.000
    Si2703   Si       0.43909    0.83455    0.13291    1.000
    N2704    N        0.45227    0.85917    0.16458    1.000
    Si2705   Si       0.37066    0.85667    0.15444    1.000
    N2706    N        0.48127    0.84704    0.23206    1.000
    N2707    N        0.41733    0.86806    0.22918    1.000
    N2708    N        0.38188    0.89127    0.17577    1.000
    N2709    N        0.25055    0.85903    0.31090    1.000
    Si2710   Si       0.28852    0.85294    0.29616    1.000
    N2711    N        0.32026    0.84594    0.32244    1.000
    N2712    N        0.29732    0.88330    0.26669    1.000
    Si2713   Si       0.24131    0.86474    0.35195    1.000
    Si2714   Si       0.35811    0.86926    0.32185    1.000
    Si2715   Si       0.40821    0.85425    0.26884    1.000
    N2716    N        0.44508    0.86043    0.29094    1.000
    N2717    N        0.38146    0.88126    0.28899    1.000
    Si2718   Si       0.47763    0.83727    0.27477    1.000
    N2719    N        0.42160    0.88799    0.35612    1.000
    N2720    N        0.43090    0.85659    0.43007    1.000
    N2721    N        0.33187    0.85236    0.40453    1.000
    N2722    N        0.27169    0.87571    0.38091    1.000
    Si2723   Si       0.25739    0.86307    0.42100    1.000
    Si2724   Si       0.29623    0.87217    0.49009    1.000
    N2725    N        0.33624    0.88462    0.47635    1.000
    Si2726   Si       0.31680    0.88541    0.38277    1.000
    N2727    N        0.26865    0.88444    0.45994    1.000
    Si2728   Si       0.45784    0.86892    0.37187    1.000
    Si2729   Si       0.47065    0.83587    0.43400    1.000
    Si2730   Si       0.37547    0.87087    0.49105    1.000
    N2731    N        0.48071    0.89006    0.34039    1.000
    Si2732   Si       0.33063    0.87172    0.55018    1.000
    Si2733   Si       0.27047    0.84059    0.58227    1.000
    N2734    N        0.30947    0.83650    0.56404    1.000
    N2735    N        0.26630    0.88190    0.59197    1.000
    N2736    N        0.36903    0.86360    0.53395    1.000
    N2737    N        0.41311    0.87914    0.58784    1.000
    N2738    N        0.44090    0.85300    0.53827    1.000
    Si2739   Si       0.40345    0.85027    0.55653    1.000
    Si2740   Si       0.47641    0.84401    0.55977    1.000
    N2741    N        0.32139    0.83886    0.65677    1.000
    Si2742   Si       0.29179    0.86693    0.67046    1.000
    N2743    N        0.28792    0.85825    0.71431    1.000
    Si2744   Si       0.33122    0.85422    0.72476    1.000
    N2745    N        0.25201    0.86057    0.65783    1.000
    N2746    N        0.36384    0.86795    0.69784    1.000
    N2747    N        0.42676    0.85958    0.72184    1.000
    Si2748   Si       0.40125    0.84732    0.68781    1.000
    N2749    N        0.42743    0.85649    0.65379    1.000
    Si2750   Si       0.41486    0.88808    0.62928    1.000
    Si2751   Si       0.24326    0.88979    0.62727    1.000
    N2752    N        0.33594    0.87278    0.76356    1.000
    Si2753   Si       0.33356    0.85672    0.85099    1.000
    Si2754   Si       0.35709    0.84775    0.78920    1.000
    Si2755   Si       0.40481    0.86314    0.84001    1.000
    N2756    N        0.38657    0.87846    0.80417    1.000
    N2757    N        0.37337    0.84697    0.86658    1.000
    Si2758   Si       0.47330    0.85386    0.97909    1.000
    N2759    N        0.33776    0.86416    0.94414    1.000
    Si2760   Si       0.26541    0.86015    0.95493    1.000
    N2761    N        0.30586    0.85296    0.88213    1.000
    Si2762   Si       0.31782    0.88415    0.91213    1.000
    Si2763   Si       0.33685    0.86166    0.98965    1.000
    N2764    N        0.28707    0.86963    0.99089    1.000
    Si2765   Si       0.38272    0.86857    0.94677    1.000
    N2766    N        0.38276    0.87230    0.99052    1.000
    N2767    N        0.44055    0.89107    0.85245    1.000
    N2768    N        0.27719    0.92571    0.03979    1.000
    Si2769   Si       0.29592    0.90939    0.00553    1.000
    Si2770   Si       0.29925    0.93918    0.07425    1.000
    N2771    N        0.30252    0.89934    0.09303    1.000
    Si2772   Si       0.47249    0.91228    0.01791    1.000
    N2773    N        0.46413    0.90881    0.06185    1.000
    Si2774   Si       0.42670    0.91420    0.08432    1.000
    Si2775   Si       0.37988    0.89656    0.02617    1.000
    N2776    N        0.38777    0.93942    0.01693    1.000
    Si2777   Si       0.32531    0.90723    0.13186    1.000
    N2778    N        0.29259    0.92087    0.15619    1.000
    Si2779   Si       0.28225    0.90929    0.19618    1.000
    N2780    N        0.30364    0.93484    0.22424    1.000
    N2781    N        0.23918    0.90812    0.20295    1.000
    N2782    N        0.36129    0.93070    0.12378    1.000
    N2783    N        0.38485    0.92734    0.23675    1.000
    Si2784   Si       0.39641    0.92254    0.14932    1.000
    N2785    N        0.43244    0.91053    0.12706    1.000
    Si2786   Si       0.47012    0.89984    0.15071    1.000
    N2787    N        0.46740    0.91094    0.19343    1.000
    Si2788   Si       0.30507    0.92544    0.26604    1.000
    N2789    N        0.34185    0.93750    0.28670    1.000
    N2790    N        0.35061    0.89633    0.35316    1.000
    N2791    N        0.27249    0.93775    0.35362    1.000
    Si2792   Si       0.38255    0.92622    0.28034    1.000
    N2793    N        0.42083    0.93231    0.30457    1.000
    Si2794   Si       0.44202    0.89645    0.31674    1.000
    N2795    N        0.39125    0.91675    0.41502    1.000
    Si2796   Si       0.32853    0.91982    0.45317    1.000
    N2797    N        0.31549    0.92024    0.41146    1.000
    Si2798   Si       0.26146    0.92678    0.46576    1.000
    N2799    N        0.24794    0.93983    0.42563    1.000
    Si2800   Si       0.28063    0.94151    0.39521    1.000
    N2801    N        0.29838    0.94336    0.47574    1.000
    Si2802   Si       0.39695    0.94589    0.47990    1.000
    N2803    N        0.46034    0.91924    0.44147    1.000
    N2804    N        0.40393    0.90272    0.48144    1.000
    Si2805   Si       0.38809    0.91452    0.37009    1.000
    Si2806   Si       0.42157    0.89723    0.44006    1.000
    Si2807   Si       0.26688    0.90814    0.55782    1.000
    N2808    N        0.33553    0.90667    0.57651    1.000
    Si2809   Si       0.31928    0.94654    0.56513    1.000
    Si2810   Si       0.39169    0.94824    0.72333    1.000
    Si2811   Si       0.36366    0.92631    0.60481    1.000
    Si2812   Si       0.42843    0.91841    0.58073    1.000
    N2813    N        0.46202    0.93211    0.55645    1.000
    N2814    N        0.39367    0.94234    0.57719    1.000
    Si2815   Si       0.26530    0.89222    0.73579    1.000
    Si2816   Si       0.27815    0.93353    0.66914    1.000
    N2817    N        0.26793    0.92370    0.70807    1.000
    N2818    N        0.30906    0.90429    0.66086    1.000
    Si2819   Si       0.35179    0.90373    0.67505    1.000
    N2820    N        0.35313    0.93605    0.70342    1.000
    N2821    N        0.24336    0.92951    0.64389    1.000
    Si2822   Si       0.44541    0.94817    0.65705    1.000
    N2823    N        0.42171    0.93388    0.69366    1.000
    N2824    N        0.47921    0.91154    0.72376    1.000
    N2825    N        0.37596    0.90423    0.63898    1.000
    Si2826   Si       0.43591    0.90171    0.72209    1.000
    N2827    N        0.44059    0.92261    0.62347    1.000
    N2828    N        0.29509    0.89174    0.52775    1.000
    Si2829   Si       0.32075    0.90574    0.78635    1.000
    N2830    N        0.28037    0.91181    0.77193    1.000
    Si2831   Si       0.30932    0.92817    0.85539    1.000
    N2832    N        0.34743    0.93771    0.78194    1.000
    N2833    N        0.32195    0.89624    0.82964    1.000
    N2834    N        0.26720    0.92566    0.86687    1.000
    N2835    N        0.40769    0.89261    0.92222    1.000
    Si2836   Si       0.38814    0.91963    0.79273    1.000
    N2837    N        0.46805    0.91885    0.79423    1.000
    Si2838   Si       0.47865    0.89752    0.83373    1.000
    N2839    N        0.40760    0.91926    0.75308    1.000
    N2840    N        0.45221    0.89129    0.98533    1.000
    Si2841   Si       0.26291    0.93053    0.90814    1.000
    N2842    N        0.32969    0.91994    0.89260    1.000
    N2843    N        0.27877    0.89332    0.92851    1.000
    Si2844   Si       0.43907    0.91230    0.95045    1.000
    Si2845   Si       0.42922    0.91152    0.89049    1.000
    N2846    N        0.46687    0.91649    0.91459    1.000
    N2847    N        0.25567    0.94878    0.98169    1.000
    Si2848   Si       0.25984    0.95026    0.78000    1.000
    N2849    N        0.32029    0.94446    0.99176    1.000
    N2850    N        0.27748    0.96630    0.10217    1.000
    N2851    N        0.27442    0.99482    0.03849    1.000
    Si2852   Si       0.34809    0.95923    0.02181    1.000
    Si2853   Si       0.25252    0.95895    0.02341    1.000
    N2854    N        0.33914    0.95364    0.06432    1.000
    N2855    N        0.34522    0.00305    0.02032    1.000
    Si2856   Si       0.27116    0.00309    0.08200    1.000
    Si2857   Si       0.36735    0.96335    0.09368    1.000
    Si2858   Si       0.42223    0.99529    0.09544    1.000
    N2859    N        0.37978    0.00317    0.10666    1.000
    N2860    N        0.46066    0.95330    0.00757    1.000
    N2861    N        0.40907    0.95490    0.08394    1.000
    Si2862   Si       0.39426    0.96269    0.21087    1.000
    Si2863   Si       0.27407    0.95835    0.14629    1.000
    N2864    N        0.28895    0.98399    0.17930    1.000
    Si2865   Si       0.31532    0.97459    0.21151    1.000
    N2866    N        0.35616    0.98465    0.20750    1.000
    N2867    N        0.41105    0.95492    0.17270    1.000
    Si2868   Si       0.45161    0.96667    0.16035    1.000
    N2869    N        0.41225    0.99316    0.23278    1.000
    N2870    N        0.44299    0.99786    0.13218    1.000
    N2871    N        0.46857    0.97577    0.19800    1.000
    N2872    N        0.48575    0.94449    0.14351    1.000
    Si2873   Si       0.25671    0.95646    0.31875    1.000
    Si2874   Si       0.26335    0.98163    0.25360    1.000
    N2875    N        0.26297    0.99804    0.33290    1.000
    N2876    N        0.27441    0.94953    0.28023    1.000
    N2877    N        0.41897    0.96746    0.44782    1.000
    N2878    N        0.46449    0.97871    0.32925    1.000
    Si2879   Si       0.42200    0.96560    0.33230    1.000
    N2880    N        0.39930    0.95553    0.36854    1.000
    N2881    N        0.41127    0.00837    0.32293    1.000
    N2882    N        0.29302    0.98429    0.39431    1.000
    N2883    N        0.35681    0.94997    0.46851    1.000
    Si2884   Si       0.46235    0.96188    0.45051    1.000
    N2885    N        0.36045    0.99296    0.41516    1.000
    N2886    N        0.47348    0.96930    0.49058    1.000
    Si2887   Si       0.39069    0.96220    0.41291    1.000
    N2888    N        0.48870    0.97982    0.42089    1.000
    Si2889   Si       0.32736    0.96997    0.49330    1.000
    N2890    N        0.30020    0.99937    0.24341    1.000
    N2891    N        0.33992    0.96738    0.53487    1.000
    N2892    N        0.33708    0.96022    0.60558    1.000
    Si2893   Si       0.26301    0.98786    0.57250    1.000
    N2894    N        0.27585    0.99730    0.61255    1.000
    N2895    N        0.27728    0.94843    0.56308    1.000
    N2896    N        0.46142    0.99919    0.54652    1.000
    N2897    N        0.40943    0.96535    0.51719    1.000
    Si2898   Si       0.45028    0.96217    0.52714    1.000
    Si2899   Si       0.38094    0.97401    0.55013    1.000
    N2900    N        0.29560    0.97454    0.66802    1.000
    Si2901   Si       0.26403    0.00260    0.65453    1.000
    N2902    N        0.32054    0.98950    0.73569    1.000
    N2903    N        0.35299    0.99469    0.66970    1.000
    Si2904   Si       0.32384    0.98960    0.63541    1.000
    Si2905   Si       0.32930    0.97109    0.69861    1.000
    N2906    N        0.45015    0.99043    0.65472    1.000
    N2907    N        0.31797    0.97142    0.85699    1.000
    N2908    N        0.28982    0.98011    0.79328    1.000
    Si2909   Si       0.34861    0.97715    0.76813    1.000
    Si2910   Si       0.28426    0.00050    0.75560    1.000
    Si2911   Si       0.31139    0.00022    0.82514    1.000
    N2912    N        0.24633    0.97841    0.74983    1.000
    N2913    N        0.42045    0.95192    0.95432    1.000
    N2914    N        0.40756    0.95161    0.81294    1.000
    Si2915   Si       0.41884    0.97317    0.85015    1.000
    N2916    N        0.45974    0.97367    0.83575    1.000
    N2917    N        0.45150    0.98926    0.76407    1.000
    Si2918   Si       0.44916    0.95891    0.79658    1.000
    Si2919   Si       0.32786    0.96541    0.89815    1.000
    Si2920   Si       0.29295    0.96404    0.96595    1.000
    N2921    N        0.29067    0.96032    0.92390    1.000
    N2922    N        0.35827    0.98844    0.91752    1.000
    N2923    N        0.29334    0.00644    0.97085    1.000
    N2924    N        0.41073    0.00425    0.99434    1.000
    N2925    N        0.41046    0.95099    0.88563    1.000
    Si2926   Si       0.39907    0.97258    0.92193    1.000
    N2927    N        0.35154    0.00523    0.80231    1.000
    Si2928   Si       0.42031    0.96135    0.99723    1.000
    N2929    N        0.38655    0.98275    0.74622    1.000
    Si2930   Si       0.57127    0.03006    0.03153    1.000
    N2931    N        0.54678    0.05393    0.06048    1.000
    Si2932   Si       0.49416    0.01943    0.06707    1.000
    N2933    N        0.60947    0.04976    0.03119    1.000
    Si2934   Si       0.56485    0.06192    0.09720    1.000
    N2935    N        0.50827    0.00678    0.10454    1.000
    Si2936   Si       0.67828    0.04310    0.10628    1.000
    N2937    N        0.63622    0.02537    0.09287    1.000
    N2938    N        0.72638    0.05400    0.03775    1.000
    Si2939   Si       0.63267    0.02995    0.00116    1.000
    Si2940   Si       0.62791    0.06024    0.06806    1.000
    N2941    N        0.72067    0.05849    0.11444    1.000
    N2942    N        0.67520    0.02292    0.99707    1.000
    Si2943   Si       0.70631    0.05183    0.99727    1.000
    Si2944   Si       0.73492    0.01643    0.11998    1.000
    N2945    N        0.57759    0.03117    0.12132    1.000
    N2946    N        0.53076    0.04373    0.17932    1.000
    Si2947   Si       0.53978    0.04486    0.22312    1.000
    Si2948   Si       0.56022    0.01965    0.15797    1.000
    N2949    N        0.59910    0.03093    0.17713    1.000
    Si2950   Si       0.61278    0.06001    0.20859    1.000
    N2951    N        0.71943    0.01206    0.16605    1.000
    Si2952   Si       0.68263    0.02162    0.18931    1.000
    N2953    N        0.65944    0.04553    0.14765    1.000
    Si2954   Si       0.61935    0.02319    0.13545    1.000
    N2955    N        0.64915    0.04687    0.23261    1.000
    N2956    N        0.69600    0.06785    0.19369    1.000
    N2957    N        0.57439    0.03746    0.32731    1.000
    Si2958   Si       0.54813    0.03764    0.36163    1.000
    N2959    N        0.59328    0.00819    0.26502    1.000
    N2960    N        0.63778    0.04772    0.30559    1.000
    Si2961   Si       0.63147    0.02781    0.26695    1.000
    Si2962   Si       0.66818    0.04099    0.33806    1.000
    N2963    N        0.70764    0.05614    0.33684    1.000
    N2964    N        0.65156    0.05645    0.37583    1.000
    Si2965   Si       0.58070    0.05008    0.48898    1.000
    N2966    N        0.57090    0.03859    0.39952    1.000
    N2967    N        0.58964    0.01284    0.46785    1.000
    N2968    N        0.50005    0.04930    0.41898    1.000
    Si2969   Si       0.71759    0.01192    0.45058    1.000
    N2970    N        0.67080    0.06274    0.44152    1.000
    N2971    N        0.73736    0.05126    0.44492    1.000
    Si2972   Si       0.65891    0.03362    0.41109    1.000
    Si2973   Si       0.54749    0.02009    0.54940    1.000
    N2974    N        0.55349    0.05435    0.52477    1.000
    N2975    N        0.57472    0.05492    0.61226    1.000
    Si2976   Si       0.60520    0.03984    0.58668    1.000
    N2977    N        0.52602    0.00880    0.58910    1.000
    N2978    N        0.58856    0.01249    0.55890    1.000
    Si2979   Si       0.53798    0.03498    0.62388    1.000
    N2980    N        0.68711    0.02611    0.67294    1.000
    N2981    N        0.70760    0.04442    0.54425    1.000
    Si2982   Si       0.71413    0.04332    0.58908    1.000
    N2983    N        0.63584    0.03505    0.61906    1.000
    Si2984   Si       0.68474    0.05239    0.70546    1.000
    Si2985   Si       0.66249    0.00985    0.64159    1.000
    N2986    N        0.57184    0.05567    0.73370    1.000
    N2987    N        0.59182    0.02553    0.67007    1.000
    Si2988   Si       0.60623    0.03833    0.71010    1.000
    Si2989   Si       0.60356    0.05954    0.64450    1.000
    N2990    N        0.68937    0.03008    0.74378    1.000
    N2991    N        0.62985    0.00485    0.71964    1.000
    Si2992   Si       0.55182    0.04222    0.77080    1.000
    N2993    N        0.50970    0.03375    0.75893    1.000
    N2994    N        0.55220    0.06008    0.80967    1.000
    Si2995   Si       0.65199    0.01296    0.75626    1.000
    N2996    N        0.66742    0.03845    0.85967    1.000
    N2997    N        0.62745    0.03778    0.78229    1.000
    N2998    N        0.70601    0.02033    0.80928    1.000
    Si2999   Si       0.72298    0.02857    0.76974    1.000
    Si3000   Si       0.69556    0.05602    0.83068    1.000
    N3001    N        0.55961    0.03139    0.87423    1.000
    Si3002   Si       0.52006    0.03037    0.89582    1.000
    N3003    N        0.53508    0.02619    0.93597    1.000
    Si3004   Si       0.53676    0.05875    0.96886    1.000
    N3005    N        0.55541    0.02579    0.99375    1.000
    N3006    N        0.50487    0.06368    0.86753    1.000
    N3007    N        0.63181    0.01575    0.90056    1.000
    Si3008   Si       0.65324    0.05511    0.89835    1.000
    N3009    N        0.61858    0.03488    0.96197    1.000
    Si3010   Si       0.51848    0.08479    0.04703    1.000
    N3011    N        0.59984    0.08711    0.08607    1.000
    N3012    N        0.52621    0.08598    0.00315    1.000
    N3013    N        0.52980    0.12253    0.06467    1.000
    Si3014   Si       0.70168    0.08746    0.04779    1.000
    N3015    N        0.66896    0.07676    0.07643    1.000
    N3016    N        0.68722    0.09154    0.00524    1.000
    Si3017   Si       0.67241    0.11695    0.09698    1.000
    N3018    N        0.53639    0.08209    0.12266    1.000
    N3019    N        0.51701    0.11170    0.18863    1.000
    Si3020   Si       0.50886    0.11049    0.23268    1.000
    Si3021   Si       0.51283    0.07991    0.15985    1.000
    N3022    N        0.57551    0.07083    0.22873    1.000
    N3023    N        0.63056    0.09615    0.19121    1.000
    Si3024   Si       0.68332    0.07607    0.23595    1.000
    N3025    N        0.67845    0.11695    0.14033    1.000
    Si3026   Si       0.66646    0.08454    0.16637    1.000
    N3027    N        0.50921    0.06797    0.24625    1.000
    N3028    N        0.59360    0.10050    0.28827    1.000
    N3029    N        0.50039    0.11773    0.31084    1.000
    N3030    N        0.60575    0.10001    0.34960    1.000
    N3031    N        0.52113    0.07044    0.36073    1.000
    Si3032   Si       0.57799    0.10768    0.24766    1.000
    Si3033   Si       0.60284    0.06985    0.31665    1.000
    Si3034   Si       0.62958    0.09200    0.38354    1.000
    N3035    N        0.65938    0.12469    0.46167    1.000
    N3036    N        0.66559    0.11261    0.25071    1.000
    N3037    N        0.49213    0.10701    0.44318    1.000
    N3038    N        0.55822    0.07794    0.46246    1.000
    Si3039   Si       0.57026    0.07491    0.42276    1.000
    Si3040   Si       0.50646    0.08824    0.39986    1.000
    Si3041   Si       0.53349    0.11468    0.46156    1.000
    N3042    N        0.54500    0.10754    0.40849    1.000
    N3043    N        0.61913    0.07240    0.49306    1.000
    N3044    N        0.61173    0.08916    0.42306    1.000
    Si3045   Si       0.63797    0.08756    0.45674    1.000
    Si3046   Si       0.70775    0.08454    0.45096    1.000
    Si3047   Si       0.73903    0.09448    0.28909    1.000
    N3048    N        0.71089    0.12468    0.30350    1.000
    N3049    N        0.71961    0.06757    0.26028    1.000
    N3050    N        0.74140    0.11768    0.36952    1.000
    Si3051   Si       0.54494    0.09594    0.53185    1.000
    N3052    N        0.52890    0.11231    0.57147    1.000
    Si3053   Si       0.50086    0.08500    0.59020    1.000
    N3054    N        0.58523    0.11248    0.53275    1.000
    N3055    N        0.52001    0.11812    0.50221    1.000
    Si3056   Si       0.62386    0.09402    0.53127    1.000
    N3057    N        0.69535    0.08070    0.59941    1.000
    Si3058   Si       0.65369    0.07444    0.60454    1.000
    Si3059   Si       0.72783    0.08135    0.52896    1.000
    N3060    N        0.72768    0.11897    0.55148    1.000
    Si3061   Si       0.71153    0.12092    0.59215    1.000
    N3062    N        0.63223    0.07109    0.56763    1.000
    Si3063   Si       0.71614    0.11572    0.71911    1.000
    Si3064   Si       0.49194    0.08681    0.66133    1.000
    N3065    N        0.51324    0.07582    0.69587    1.000
    Si3066   Si       0.55616    0.08540    0.70467    1.000
    N3067    N        0.58789    0.08553    0.67688    1.000
    Si3068   Si       0.49680    0.07064    0.73737    1.000
    N3069    N        0.51097    0.06823    0.62737    1.000
    Si3070   Si       0.64211    0.10563    0.73404    1.000
    N3071    N        0.71923    0.07696    0.70170    1.000
    N3072    N        0.64500    0.06775    0.71366    1.000
    N3073    N        0.63004    0.09336    0.63260    1.000
    Si3074   Si       0.61719    0.12091    0.66166    1.000
    N3075    N        0.65209    0.12633    0.53208    1.000
    N3076    N        0.70468    0.09152    0.49347    1.000
    N3077    N        0.51578    0.10209    0.75954    1.000
    Si3078   Si       0.49620    0.11056    0.79856    1.000
    Si3079   Si       0.54815    0.06934    0.85251    1.000
    N3080    N        0.60883    0.08406    0.83916    1.000
    N3081    N        0.62630    0.11280    0.97423    1.000
    N3082    N        0.62208    0.10819    0.77071    1.000
    N3083    N        0.67303    0.08334    0.80893    1.000
    Si3084   Si       0.62987    0.07784    0.80294    1.000
    N3085    N        0.68159    0.11778    0.74703    1.000
    N3086    N        0.73380    0.07472    0.84368    1.000
    Si3087   Si       0.68266    0.12350    0.79290    1.000
    N3088    N        0.68900    0.07408    0.91553    1.000
    Si3089   Si       0.60406    0.10741    0.87590    1.000
    N3090    N        0.56184    0.09781    0.88436    1.000
    Si3091   Si       0.54448    0.10307    0.92451    1.000
    N3092    N        0.56985    0.08148    0.95230    1.000
    N3093    N        0.50816    0.08661    0.94144    1.000
    Si3094   Si       0.61240    0.07835    0.95033    1.000
    Si3095   Si       0.51818    0.12299    0.98278    1.000
    Si3096   Si       0.67034    0.12099    0.97958    1.000
    N3097    N        0.62306    0.08495    0.90810    1.000
    Si3098   Si       0.70538    0.11270    0.91124    1.000
    Si3099   Si       0.53618    0.16182    0.04757    1.000
    N3100    N        0.57161    0.14648    0.10815    1.000
    N3101    N        0.53250    0.15673    0.00522    1.000
    N3102    N        0.60054    0.13964    0.03895    1.000
    Si3103   Si       0.60013    0.12950    0.08044    1.000
    N3104    N        0.50055    0.18049    0.07178    1.000
    Si3105   Si       0.53466    0.12285    0.10749    1.000
    N3106    N        0.63951    0.14569    0.09348    1.000
    N3107    N        0.66069    0.15932    0.99932    1.000
    Si3108   Si       0.61808    0.14674    0.00062    1.000
    N3109    N        0.70646    0.12415    0.06970    1.000
    Si3110   Si       0.51755    0.15205    0.17154    1.000
    N3111    N        0.50570    0.14591    0.12970    1.000
    N3112    N        0.60044    0.14233    0.22777    1.000
    N3113    N        0.55937    0.16769    0.17390    1.000
    Si3114   Si       0.57848    0.17877    0.21347    1.000
    Si3115   Si       0.56894    0.18104    0.13311    1.000
    N3116    N        0.50093    0.18095    0.19924    1.000
    Si3117   Si       0.68752    0.15535    0.15842    1.000
    Si3118   Si       0.69206    0.18263    0.22318    1.000
    Si3119   Si       0.63987    0.13032    0.21591    1.000
    N3120    N        0.66882    0.15651    0.19618    1.000
    N3121    N        0.73012    0.16394    0.15612    1.000
    N3122    N        0.73372    0.17327    0.23189    1.000
    N3123    N        0.56754    0.15297    0.32216    1.000
    Si3124   Si       0.53293    0.14321    0.29630    1.000
    Si3125   Si       0.60377    0.13022    0.31955    1.000
    N3126    N        0.51389    0.18230    0.29474    1.000
    N3127    N        0.54161    0.12888    0.25642    1.000
    Si3128   Si       0.72937    0.14561    0.33730    1.000
    N3129    N        0.64425    0.14432    0.31430    1.000
    Si3130   Si       0.67429    0.13941    0.28235    1.000
    Si3131   Si       0.65799    0.15121    0.35376    1.000
    N3132    N        0.69576    0.17304    0.34932    1.000
    N3133    N        0.72369    0.12412    0.43842    1.000
    N3134    N        0.67304    0.17947    0.26141    1.000
    Si3135   Si       0.55102    0.15164    0.41134    1.000
    N3136    N        0.50874    0.16346    0.40869    1.000
    N3137    N        0.55979    0.14989    0.45340    1.000
    Si3138   Si       0.58828    0.17740    0.46760    1.000
    N3139    N        0.57069    0.18226    0.38873    1.000
    Si3140   Si       0.71508    0.16297    0.45603    1.000
    N3141    N        0.68497    0.18155    0.43057    1.000
    N3142    N        0.65563    0.12745    0.38963    1.000
    N3143    N        0.61859    0.17659    0.43559    1.000
    Si3144   Si       0.65325    0.15141    0.42635    1.000
    Si3145   Si       0.58686    0.15378    0.54479    1.000
    Si3146   Si       0.51485    0.15287    0.56918    1.000
    N3147    N        0.60266    0.17408    0.50900    1.000
    N3148    N        0.55026    0.17397    0.55431    1.000
    Si3149   Si       0.62281    0.17029    0.62139    1.000
    N3150    N        0.61487    0.15896    0.58084    1.000
    Si3151   Si       0.65432    0.15773    0.56072    1.000
    N3152    N        0.68641    0.15690    0.58920    1.000
    N3153    N        0.70819    0.15708    0.49954    1.000
    N3154    N        0.48878    0.17069    0.60005    1.000
    Si3155   Si       0.67980    0.12703    0.50091    1.000
    Si3156   Si       0.56728    0.16165    0.68112    1.000
    N3157    N        0.50175    0.16348    0.72904    1.000
    N3158    N        0.58838    0.15282    0.64618    1.000
    N3159    N        0.55338    0.12825    0.70578    1.000
    Si3160   Si       0.49683    0.16633    0.68429    1.000
    Si3161   Si       0.53425    0.13797    0.74343    1.000
    N3162    N        0.62904    0.13198    0.70267    1.000
    Si3163   Si       0.62790    0.17242    0.71793    1.000
    N3164    N        0.71398    0.13892    0.68200    1.000
    Si3165   Si       0.68301    0.16604    0.67104    1.000
    N3166    N        0.65182    0.15163    0.64612    1.000
    N3167    N        0.56482    0.15876    0.76444    1.000
    Si3168   Si       0.52049    0.16998    0.84153    1.000
    N3169    N        0.59241    0.16979    0.81796    1.000
    Si3170   Si       0.58971    0.17973    0.86072    1.000
    Si3171   Si       0.60405    0.14661    0.78143    1.000
    N3172    N        0.52178    0.12950    0.82808    1.000
    Si3173   Si       0.65852    0.15718    0.85951    1.000
    N3174    N        0.65981    0.15103    0.81695    1.000
    Si3175   Si       0.72452    0.15322    0.84849    1.000
    N3176    N        0.62989    0.17384    0.76098    1.000
    Si3177   Si       0.73438    0.16032    0.77474    1.000
    N3178    N        0.72403    0.13184    0.80698    1.000
    N3179    N        0.54068    0.14116    0.94496    1.000
    Si3180   Si       0.55551    0.17413    0.96902    1.000
    N3181    N        0.54780    0.17683    0.87599    1.000
    N3182    N        0.59668    0.18001    0.97980    1.000
    N3183    N        0.70243    0.13100    0.95163    1.000
    N3184    N        0.69449    0.13970    0.87743    1.000
    N3185    N        0.61799    0.14888    0.87511    1.000
    N3186    N        0.69643    0.18255    0.76898    1.000
    Si3187   Si       0.52496    0.21472    0.08354    1.000
    N3188    N        0.55882    0.19788    0.06000    1.000
    Si3189   Si       0.57275    0.23513    0.04064    1.000
    N3190    N        0.61376    0.22837    0.02657    1.000
    N3191    N        0.63982    0.22448    0.08994    1.000
    N3192    N        0.68446    0.21474    0.03603    1.000
    Si3193   Si       0.71787    0.22347    0.06223    1.000
    Si3194   Si       0.64822    0.23721    0.05078    1.000
    Si3195   Si       0.68254    0.19598    0.99710    1.000
    Si3196   Si       0.64062    0.18494    0.10976    1.000
    N3197    N        0.73149    0.18702    0.08267    1.000
    N3198    N        0.70539    0.21950    0.20324    1.000
    N3199    N        0.53914    0.21354    0.12562    1.000
    Si3200   Si       0.50087    0.22359    0.20264    1.000
    N3201    N        0.60103    0.21632    0.20355    1.000
    Si3202   Si       0.58928    0.23517    0.24177    1.000
    N3203    N        0.49510    0.22607    0.24543    1.000
    N3204    N        0.61000    0.19461    0.13950    1.000
    Si3205   Si       0.72585    0.19575    0.12721    1.000
    Si3206   Si       0.61583    0.22899    0.16626    1.000
    N3207    N        0.68123    0.18739    0.12900    1.000
    N3208    N        0.55864    0.20295    0.24429    1.000
    N3209    N        0.58238    0.22321    0.33642    1.000
    N3210    N        0.52084    0.21270    0.35447    1.000
    Si3211   Si       0.52756    0.21493    0.27010    1.000
    Si3212   Si       0.55897    0.18707    0.34704    1.000
    N3213    N        0.67231    0.23802    0.38772    1.000
    Si3214   Si       0.48787    0.19688    0.32764    1.000
    Si3215   Si       0.61376    0.23868    0.31231    1.000
    N3216    N        0.62213    0.22779    0.26997    1.000
    Si3217   Si       0.67001    0.20856    0.35594    1.000
    Si3218   Si       0.66321    0.21710    0.27820    1.000
    N3219    N        0.65704    0.22957    0.32139    1.000
    N3220    N        0.49685    0.22668    0.48498    1.000
    Si3221   Si       0.51297    0.20660    0.39988    1.000
    N3222    N        0.57553    0.21988    0.46943    1.000
    Si3223   Si       0.60826    0.20078    0.40055    1.000
    N3224    N        0.53175    0.23643    0.42324    1.000
    Si3225   Si       0.53606    0.23771    0.46871    1.000
    N3226    N        0.63523    0.18650    0.36839    1.000
    Si3227   Si       0.69618    0.22090    0.41812    1.000
    N3228    N        0.63609    0.23790    0.49116    1.000
    N3229    N        0.73447    0.22356    0.39878    1.000
    N3230    N        0.61535    0.24070    0.41628    1.000
    Si3231   Si       0.55824    0.21507    0.56326    1.000
    N3232    N        0.59981    0.22435    0.55688    1.000
    N3233    N        0.54481    0.22040    0.60320    1.000
    N3234    N        0.53661    0.24048    0.53760    1.000
    Si3235   Si       0.62253    0.23919    0.59182    1.000
    Si3236   Si       0.62133    0.21030    0.52334    1.000
    N3237    N        0.71090    0.22375    0.58526    1.000
    N3238    N        0.65939    0.19837    0.54517    1.000
    Si3239   Si       0.68561    0.19666    0.60871    1.000
    Si3240   Si       0.68300    0.23333    0.55271    1.000
    N3241    N        0.64309    0.20917    0.61417    1.000
    N3242    N        0.70494    0.24176    0.51537    1.000
    Si3243   Si       0.53651    0.21862    0.64466    1.000
    Si3244   Si       0.57756    0.22883    0.70267    1.000
    N3245    N        0.59371    0.19016    0.70340    1.000
    N3246    N        0.54027    0.23501    0.72428    1.000
    N3247    N        0.53287    0.18313    0.67013    1.000
    N3248    N        0.73488    0.20526    0.70868    1.000
    Si3249   Si       0.69767    0.20312    0.73081    1.000
    N3250    N        0.66612    0.18882    0.70465    1.000
    Si3251   Si       0.73357    0.21939    0.66683    1.000
    N3252    N        0.70361    0.19623    0.64721    1.000
    N3253    N        0.52933    0.19897    0.81093    1.000
    Si3254   Si       0.56574    0.19241    0.79278    1.000
    N3255    N        0.58377    0.22873    0.78169    1.000
    Si3256   Si       0.50206    0.23160    0.80349    1.000
    N3257    N        0.59854    0.22090    0.86234    1.000
    N3258    N        0.65200    0.22663    0.80548    1.000
    N3259    N        0.72489    0.19700    0.85193    1.000
    Si3260   Si       0.64131    0.23278    0.84973    1.000
    Si3261   Si       0.65941    0.18610    0.79003    1.000
    Si3262   Si       0.73190    0.21067    0.94084    1.000
    N3263    N        0.66392    0.19970    0.86580    1.000
    N3264    N        0.54180    0.20862    0.94762    1.000
    N3265    N        0.51101    0.23144    0.88499    1.000
    Si3266   Si       0.52438    0.19644    0.90926    1.000
    N3267    N        0.72011    0.18932    0.97731    1.000
    N3268    N        0.69946    0.22726    0.91844    1.000
    Si3269   Si       0.70008    0.22536    0.87455    1.000
    N3270    N        0.65732    0.22147    0.97340    1.000
    Si3271   Si       0.61509    0.21887    0.98306    1.000
    N3272    N        0.57749    0.26457    0.07153    1.000
    Si3273   Si       0.50862    0.28809    0.08737    1.000
    Si3274   Si       0.50482    0.25847    0.02426    1.000
    N3275    N        0.51100    0.25034    0.06471    1.000
    N3276    N        0.54518    0.24432    0.00928    1.000
    N3277    N        0.65437    0.24632    0.16326    1.000
    N3278    N        0.65812    0.27927    0.04742    1.000
    N3279    N        0.64248    0.28927    0.11389    1.000
    Si3280   Si       0.66392    0.25156    0.11840    1.000
    Si3281   Si       0.68173    0.29847    0.01526    1.000
    N3282    N        0.51271    0.27643    0.13029    1.000
    Si3283   Si       0.54390    0.25148    0.14835    1.000
    N3284    N        0.58661    0.25985    0.15314    1.000
    N3285    N        0.52777    0.25489    0.18899    1.000
    Si3286   Si       0.51663    0.29581    0.19859    1.000
    N3287    N        0.50554    0.29402    0.24035    1.000
    Si3288   Si       0.60950    0.29564    0.14664    1.000
    N3289    N        0.49999    0.30150    0.01817    1.000
    Si3290   Si       0.73623    0.26312    0.12293    1.000
    Si3291   Si       0.68950    0.25441    0.18370    1.000
    N3292    N        0.69775    0.28482    0.21329    1.000
    N3293    N        0.71104    0.28061    0.15287    1.000
    N3294    N        0.70443    0.24684    0.09820    1.000
    Si3295   Si       0.53952    0.28456    0.27002    1.000
    N3296    N        0.53399    0.25086    0.29549    1.000
    N3297    N        0.54652    0.27766    0.36693    1.000
    Si3298   Si       0.54408    0.24721    0.33692    1.000
    N3299    N        0.61300    0.28191    0.30730    1.000
    Si3300   Si       0.68830    0.26477    0.31554    1.000
    N3301    N        0.72740    0.26554    0.33296    1.000
    N3302    N        0.69103    0.25019    0.27477    1.000
    Si3303   Si       0.71834    0.27052    0.24953    1.000
    N3304    N        0.54179    0.27979    0.48390    1.000
    Si3305   Si       0.52915    0.27827    0.40722    1.000
    N3306    N        0.60508    0.28852    0.46403    1.000
    Si3307   Si       0.60779    0.24541    0.45872    1.000
    N3308    N        0.48951    0.28982    0.41843    1.000
    Si3309   Si       0.67620    0.25820    0.48710    1.000
    N3310    N        0.61602    0.29675    0.37608    1.000
    N3311    N        0.69231    0.25428    0.44845    1.000
    Si3312   Si       0.70748    0.29214    0.43081    1.000
    Si3313   Si       0.64325    0.26875    0.39902    1.000
    N3314    N        0.73714    0.29112    0.39861    1.000
    N3315    N        0.66880    0.30205    0.41296    1.000
    N3316    N        0.57345    0.27591    0.24352    1.000
    Si3317   Si       0.54936    0.28203    0.52741    1.000
    N3318    N        0.59775    0.27514    0.60640    1.000
    N3319    N        0.49485    0.28805    0.53220    1.000
    N3320    N        0.59391    0.29375    0.52981    1.000
    Si3321   Si       0.49452    0.24473    0.52629    1.000
    N3322    N        0.65627    0.26171    0.57530    1.000
    N3323    N        0.66456    0.29536    0.50440    1.000
    Si3324   Si       0.50694    0.28582    0.63880    1.000
    Si3325   Si       0.58290    0.28039    0.64662    1.000
    N3326    N        0.59862    0.26066    0.72370    1.000
    N3327    N        0.50042    0.24556    0.64870    1.000
    N3328    N        0.69065    0.24391    0.74444    1.000
    N3329    N        0.57224    0.24069    0.66127    1.000
    Si3330   Si       0.63401    0.28254    0.72887    1.000
    N3331    N        0.66456    0.28823    0.69981    1.000
    N3332    N        0.73501    0.28858    0.73104    1.000
    Si3333   Si       0.71643    0.29684    0.64348    1.000
    Si3334   Si       0.70151    0.26893    0.70950    1.000
    N3335    N        0.71994    0.25975    0.66972    1.000
    Si3336   Si       0.59096    0.30282    0.57388    1.000
    N3337    N        0.54687    0.27514    0.84125    1.000
    N3338    N        0.52317    0.26185    0.77834    1.000
    Si3339   Si       0.58397    0.26216    0.86185    1.000
    Si3340   Si       0.56570    0.25885    0.75560    1.000
    Si3341   Si       0.54012    0.29481    0.80131    1.000
    Si3342   Si       0.51057    0.26735    0.86385    1.000
    Si3343   Si       0.67838    0.25091    0.94928    1.000
    Si3344   Si       0.61436    0.25650    0.79653    1.000
    N3345    N        0.61800    0.27325    0.83689    1.000
    N3346    N        0.64274    0.27664    0.76964    1.000
    Si3347   Si       0.68096    0.25580    0.78656    1.000
    Si3348   Si       0.72582    0.28512    0.82944    1.000
    N3349    N        0.68623    0.29476    0.81322    1.000
    N3350    N        0.72309    0.24391    0.80160    1.000
    N3351    N        0.67360    0.25953    0.86685    1.000
    Si3352   Si       0.65095    0.30076    0.83951    1.000
    N3353    N        0.64855    0.27516    0.92823    1.000
    Si3354   Si       0.54316    0.29731    0.91507    1.000
    N3355    N        0.57963    0.27933    0.90236    1.000
    N3356    N        0.53226    0.28464    0.95433    1.000
    N3357    N        0.59284    0.25063    0.96333    1.000
    Si3358   Si       0.60851    0.28150    0.93690    1.000
    Si3359   Si       0.55084    0.24720    0.96796    1.000
    N3360    N        0.50591    0.29762    0.89222    1.000
    Si3361   Si       0.72488    0.30007    0.95924    1.000
    N3362    N        0.71348    0.29197    0.91977    1.000
    N3363    N        0.69809    0.27369    0.98096    1.000
    Si3364   Si       0.67608    0.29000    0.89714    1.000
    N3365    N        0.57951    0.29457    0.78098    1.000
    Si3366   Si       0.50147    0.24556    0.74070    1.000
    N3367    N        0.53653    0.31946    0.07944    1.000
    Si3368   Si       0.57841    0.30493    0.08491    1.000
    N3369    N        0.60796    0.32760    0.06278    1.000
    Si3370   Si       0.61621    0.35250    0.03091    1.000
    N3371    N        0.71967    0.31336    0.03292    1.000
    Si3372   Si       0.64671    0.31046    0.07779    1.000
    N3373    N        0.65548    0.33336    0.00950    1.000
    N3374    N        0.67182    0.34599    0.08315    1.000
    Si3375   Si       0.73315    0.34895    0.01117    1.000
    N3376    N        0.58275    0.32264    0.12517    1.000
    N3377    N        0.55085    0.32326    0.19972    1.000
    Si3378   Si       0.58940    0.30881    0.21554    1.000
    N3379    N        0.68858    0.34804    0.18442    1.000
    Si3380   Si       0.71415    0.31161    0.18267    1.000
    N3381    N        0.61948    0.31569    0.18292    1.000
    Si3382   Si       0.64692    0.34851    0.17610    1.000
    N3383    N        0.55214    0.31518    0.29669    1.000
    Si3384   Si       0.55010    0.34913    0.32378    1.000
    Si3385   Si       0.59338    0.31472    0.28521    1.000
    N3386    N        0.60626    0.34220    0.31796    1.000
    N3387    N        0.56028    0.34573    0.36697    1.000
    N3388    N        0.60691    0.33234    0.24865    1.000
    Si3389   Si       0.72190    0.34430    0.26300    1.000
    Si3390   Si       0.69151    0.34539    0.33390    1.000
    N3391    N        0.67232    0.30595    0.32726    1.000
    Si3392   Si       0.62965    0.30785    0.33578    1.000
    N3393    N        0.73217    0.30340    0.27345    1.000
    N3394    N        0.55815    0.34934    0.48514    1.000
    Si3395   Si       0.56652    0.31051    0.46397    1.000
    Si3396   Si       0.57574    0.30803    0.37990    1.000
    N3397    N        0.55773    0.30805    0.42130    1.000
    N3398    N        0.68670    0.35679    0.44416    1.000
    Si3399   Si       0.72693    0.35079    0.46366    1.000
    N3400    N        0.70014    0.35241    0.37432    1.000
    N3401    N        0.62653    0.34855    0.48928    1.000
    N3402    N        0.72535    0.30790    0.46779    1.000
    Si3403   Si       0.67124    0.34538    0.40651    1.000
    N3404    N        0.50747    0.35949    0.32838    1.000
    Si3405   Si       0.50611    0.31364    0.56574    1.000
    N3406    N        0.54764    0.30889    0.56414    1.000
    N3407    N        0.48853    0.30558    0.60648    1.000
    N3408    N        0.49324    0.35391    0.56042    1.000
    N3409    N        0.67386    0.29973    0.63378    1.000
    N3410    N        0.62358    0.32944    0.58655    1.000
    N3411    N        0.68712    0.32667    0.56965    1.000
    Si3412   Si       0.69563    0.31445    0.52798    1.000
    Si3413   Si       0.62308    0.30493    0.50002    1.000
    N3414    N        0.69156    0.35536    0.50816    1.000
    Si3415   Si       0.65942    0.30185    0.59276    1.000
    N3416    N        0.55268    0.32435    0.71320    1.000
    Si3417   Si       0.59344    0.33276    0.69888    1.000
    Si3418   Si       0.52547    0.32890    0.67591    1.000
    N3419    N        0.60993    0.30776    0.66853    1.000
    N3420    N        0.54506    0.30298    0.64637    1.000
    N3421    N        0.66292    0.35329    0.68009    1.000
    Si3422   Si       0.65290    0.31245    0.66849    1.000
    N3423    N        0.62366    0.32688    0.73238    1.000
    Si3424   Si       0.66137    0.35058    0.72480    1.000
    N3425    N        0.73035    0.32681    0.67073    1.000
    N3426    N        0.52549    0.33034    0.78145    1.000
    Si3427   Si       0.55120    0.34537    0.75184    1.000
    N3428    N        0.71641    0.33929    0.97240    1.000
    Si3429   Si       0.61414    0.32261    0.77679    1.000
    N3430    N        0.72774    0.32310    0.85440    1.000
    N3431    N        0.63985    0.33277    0.80906    1.000
    Si3432   Si       0.68323    0.33654    0.79792    1.000
    N3433    N        0.69071    0.34100    0.75538    1.000
    Si3434   Si       0.69586    0.35505    0.86877    1.000
    Si3435   Si       0.49724    0.33591    0.91039    1.000
    Si3436   Si       0.50868    0.31314    0.97887    1.000
    Si3437   Si       0.56898    0.35291    0.95985    1.000
    N3438    N        0.53671    0.34715    0.98849    1.000
    N3439    N        0.54467    0.34177    0.91746    1.000
    N3440    N        0.60304    0.32335    0.95240    1.000
    N3441    N        0.66282    0.32422    0.87448    1.000
    Si3442   Si       0.63470    0.34830    0.97130    1.000
    N3443    N        0.58967    0.36000    0.77326    1.000
    N3444    N        0.57072    0.35699    0.84996    1.000
    N3445    N        0.57494    0.38462    0.09707    1.000
    N3446    N        0.50350    0.37025    0.05179    1.000
    Si3447   Si       0.51814    0.38222    0.01163    1.000
    N3448    N        0.54889    0.41235    0.01556    1.000
    N3449    N        0.51440    0.38572    0.11476    1.000
    Si3450   Si       0.53852    0.36394    0.08404    1.000
    N3451    N        0.70842    0.37941    0.02761    1.000
    N3452    N        0.64070    0.38501    0.04144    1.000
    Si3453   Si       0.66764    0.37945    0.11111    1.000
    Si3454   Si       0.67663    0.35793    0.04171    1.000
    Si3455   Si       0.53425    0.40540    0.14946    1.000
    Si3456   Si       0.54313    0.36672    0.19883    1.000
    N3457    N        0.50996    0.39211    0.18436    1.000
    N3458    N        0.56625    0.38849    0.22862    1.000
    Si3459   Si       0.59472    0.40053    0.19703    1.000
    N3460    N        0.56882    0.38173    0.16610    1.000
    Si3461   Si       0.59137    0.36240    0.13272    1.000
    N3462    N        0.63064    0.37957    0.20554    1.000
    N3463    N        0.70174    0.39605    0.13308    1.000
    N3464    N        0.63590    0.36577    0.13859    1.000
    Si3465   Si       0.69687    0.37712    0.21567    1.000
    Si3466   Si       0.72322    0.41757    0.01071    1.000
    N3467    N        0.65581    0.41898    0.09380    1.000
    N3468    N        0.73575    0.37093    0.23221    1.000
    N3469    N        0.56315    0.38708    0.30384    1.000
    Si3470   Si       0.50023    0.39360    0.35438    1.000
    Si3471   Si       0.55692    0.40792    0.26822    1.000
    Si3472   Si       0.60878    0.38500    0.31378    1.000
    Si3473   Si       0.72841    0.37928    0.39524    1.000
    N3474    N        0.61377    0.41541    0.34630    1.000
    N3475    N        0.62695    0.39798    0.27544    1.000
    Si3476   Si       0.68187    0.38815    0.29014    1.000
    N3477    N        0.66284    0.37777    0.32787    1.000
    Si3478   Si       0.65321    0.40494    0.36176    1.000
    N3479    N        0.71828    0.36348    0.30162    1.000
    N3480    N        0.67757    0.36081    0.25295    1.000
    N3481    N        0.71114    0.41399    0.40910    1.000
    Si3482   Si       0.59267    0.37570    0.47692    1.000
    N3483    N        0.53162    0.40223    0.38590    1.000
    N3484    N        0.58146    0.37857    0.43246    1.000
    N3485    N        0.51671    0.40675    0.49021    1.000
    Si3486   Si       0.51818    0.36345    0.47865    1.000
    N3487    N        0.51010    0.36355    0.43545    1.000
    Si3488   Si       0.54806    0.36654    0.40591    1.000
    N3489    N        0.69960    0.41540    0.48511    1.000
    N3490    N        0.63663    0.40349    0.46019    1.000
    Si3491   Si       0.66364    0.37032    0.47762    1.000
    N3492    N        0.64358    0.37664    0.39431    1.000
    Si3493   Si       0.61759    0.39922    0.42053    1.000
    Si3494   Si       0.63403    0.36497    0.24620    1.000
    N3495    N        0.58920    0.41105    0.50314    1.000
    Si3496   Si       0.62464    0.37300    0.59972    1.000
    Si3497   Si       0.71719    0.38960    0.51508    1.000
    N3498    N        0.70211    0.40148    0.55534    1.000
    N3499    N        0.66634    0.37774    0.61401    1.000
    N3500    N        0.62528    0.40733    0.57305    1.000
    Si3501   Si       0.69838    0.36670    0.58385    1.000
    N3502    N        0.59409    0.37764    0.62982    1.000
    N3503    N        0.59327    0.37757    0.70000    1.000
    Si3504   Si       0.55167    0.39124    0.70033    1.000
    N3505    N        0.52341    0.37166    0.67431    1.000
    Si3506   Si       0.59890    0.40480    0.66302    1.000
    Si3507   Si       0.60721    0.38492    0.74179    1.000
    N3508    N        0.53998    0.38607    0.74029    1.000
    N3509    N        0.63842    0.41689    0.66185    1.000
    N3510    N        0.65012    0.39142    0.73538    1.000
    Si3511   Si       0.66948    0.38835    0.65606    1.000
    N3512    N        0.70980    0.40148    0.67192    1.000
    Si3513   Si       0.58702    0.37614    0.81595    1.000
    N3514    N        0.55534    0.40839    0.81106    1.000
    Si3515   Si       0.54989    0.41595    0.76884    1.000
    N3516    N        0.71895    0.36690    0.90765    1.000
    N3517    N        0.61954    0.40543    0.81581    1.000
    N3518    N        0.69221    0.37212    0.82341    1.000
    Si3519   Si       0.65668    0.39678    0.83277    1.000
    N3520    N        0.70772    0.40510    0.76997    1.000
    Si3521   Si       0.72780    0.36903    0.75428    1.000
    Si3522   Si       0.71161    0.41101    0.81370    1.000
    Si3523   Si       0.49664    0.40457    0.89112    1.000
    N3524    N        0.56352    0.39586    0.95363    1.000
    N3525    N        0.54006    0.40603    0.89151    1.000
    N3526    N        0.60564    0.37934    0.90256    1.000
    Si3527   Si       0.56502    0.36968    0.89085    1.000
    Si3528   Si       0.58262    0.40941    0.99019    1.000
    N3529    N        0.60163    0.36766    0.99344    1.000
    N3530    N        0.73312    0.40406    0.96897    1.000
    Si3531   Si       0.70586    0.37409    0.94854    1.000
    N3532    N        0.66095    0.37295    0.94858    1.000
    Si3533   Si       0.64407    0.39147    0.91161    1.000
    N3534    N        0.66745    0.39270    0.87405    1.000
    N3535    N        0.49447    0.41639    0.84720    1.000
    N3536    N        0.53791    0.44502    0.08013    1.000
    Si3537   Si       0.54200    0.45050    0.03647    1.000
    Si3538   Si       0.49705    0.45894    0.09195    1.000
    N3539    N        0.50045    0.46243    0.02214    1.000
    Si3540   Si       0.57796    0.42802    0.08843    1.000
    N3541    N        0.59848    0.43763    0.05204    1.000
    Si3542   Si       0.60973    0.46864    0.01783    1.000
    N3543    N        0.60131    0.44945    0.12012    1.000
    N3544    N        0.70878    0.45770    0.00601    1.000
    N3545    N        0.71870    0.46112    0.07503    1.000
    N3546    N        0.65269    0.46002    0.03586    1.000
    Si3547   Si       0.63852    0.42490    0.05587    1.000
    Si3548   Si       0.69179    0.47733    0.04310    1.000
    Si3549   Si       0.69256    0.44565    0.24238    1.000
    Si3550   Si       0.64526    0.45348    0.11864    1.000
    N3551    N        0.48579    0.45810    0.20371    1.000
    Si3552   Si       0.63761    0.45874    0.19484    1.000
    Si3553   Si       0.58184    0.46583    0.15593    1.000
    N3554    N        0.59773    0.44277    0.18907    1.000
    N3555    N        0.54366    0.44697    0.15814    1.000
    Si3556   Si       0.50950    0.47423    0.16897    1.000
    N3557    N        0.69776    0.41928    0.20846    1.000
    N3558    N        0.64823    0.45630    0.23866    1.000
    Si3559   Si       0.69612    0.42611    0.16432    1.000
    N3560    N        0.72811    0.45495    0.15156    1.000
    N3561    N        0.65973    0.44651    0.16011    1.000
    Si3562   Si       0.71446    0.47912    0.11669    1.000
    N3563    N        0.57900    0.44523    0.26677    1.000
    Si3564   Si       0.59583    0.44987    0.36452    1.000
    N3565    N        0.55421    0.46081    0.36111    1.000
    N3566    N        0.51648    0.42087    0.26360    1.000
    Si3567   Si       0.50155    0.46001    0.24623    1.000
    N3568    N        0.63497    0.46593    0.30031    1.000
    Si3569   Si       0.62178    0.43919    0.26819    1.000
    N3570    N        0.69043    0.42897    0.28340    1.000
    N3571    N        0.67825    0.43929    0.35496    1.000
    Si3572   Si       0.67502    0.45548    0.31452    1.000
    N3573    N        0.49085    0.46016    0.38988    1.000
    Si3574   Si       0.59285    0.46941    0.43310    1.000
    N3575    N        0.55068    0.46059    0.42934    1.000
    Si3576   Si       0.53066    0.44414    0.39256    1.000
    N3577    N        0.60997    0.43872    0.40561    1.000
    N3578    N        0.68907    0.46492    0.43211    1.000
    N3579    N        0.62125    0.46918    0.46740    1.000
    Si3580   Si       0.71225    0.43261    0.44879    1.000
    Si3581   Si       0.62794    0.43202    0.49069    1.000
    Si3582   Si       0.70370    0.45198    0.38845    1.000
    N3583    N        0.49216    0.42871    0.33094    1.000
    Si3584   Si       0.52492    0.44337    0.57627    1.000
    Si3585   Si       0.54965    0.42468    0.50873    1.000
    Si3586   Si       0.59550    0.42610    0.54891    1.000
    N3587    N        0.53920    0.45169    0.61553    1.000
    N3588    N        0.59321    0.46935    0.54017    1.000
    N3589    N        0.54386    0.46777    0.49704    1.000
    N3590    N        0.55354    0.42121    0.55279    1.000
    N3591    N        0.64806    0.44467    0.52583    1.000
    N3592    N        0.68832    0.45373    0.58345    1.000
    Si3593   Si       0.72633    0.43904    0.56781    1.000
    Si3594   Si       0.66372    0.42561    0.56090    1.000
    N3595    N        0.56604    0.42989    0.68445    1.000
    Si3596   Si       0.58822    0.45265    0.71593    1.000
    Si3597   Si       0.53499    0.44783    0.66135    1.000
    N3598    N        0.49657    0.43287    0.66768    1.000
    Si3599   Si       0.64386    0.45907    0.66181    1.000
    N3600    N        0.70160    0.44933    0.72426    1.000
    Si3601   Si       0.71369    0.44459    0.68337    1.000
    N3602    N        0.62364    0.46987    0.69895    1.000
    N3603    N        0.68560    0.47054    0.66440    1.000
    N3604    N        0.62609    0.48071    0.63182    1.000
    N3605    N        0.52385    0.45183    0.76653    1.000
    N3606    N        0.55265    0.46275    0.85238    1.000
    N3607    N        0.58999    0.42535    0.75174    1.000
    Si3608   Si       0.53834    0.42260    0.84716    1.000
    N3609    N        0.59388    0.47809    0.79272    1.000
    Si3610   Si       0.61138    0.43615    0.78830    1.000
    N3611    N        0.68152    0.43545    0.83329    1.000
    N3612    N        0.64822    0.45188    0.77095    1.000
    Si3613   Si       0.67586    0.42494    0.74803    1.000
    Si3614   Si       0.48923    0.44414    0.98369    1.000
    N3615    N        0.58170    0.45523    0.91943    1.000
    N3616    N        0.52307    0.45011    0.95556    1.000
    Si3617   Si       0.55066    0.42666    0.92884    1.000
    N3618    N        0.60749    0.44290    0.98058    1.000
    N3619    N        0.72183    0.43335    0.88987    1.000
    N3620    N        0.65088    0.43436    0.91796    1.000
    Si3621   Si       0.61929    0.45433    0.93957    1.000
    Si3622   Si       0.68018    0.43587    0.88052    1.000
    Si3623   Si       0.57064    0.52291    0.00916    1.000
    N3624    N        0.56632    0.48342    0.02672    1.000
    Si3625   Si       0.60022    0.53406    0.12076    1.000
    N3626    N        0.61330    0.51210    0.00272    1.000
    N3627    N        0.68327    0.51955    0.04937    1.000
    Si3628   Si       0.66381    0.52595    0.08879    1.000
    N3629    N        0.67093    0.48775    0.11100    1.000
    Si3630   Si       0.51047    0.52404    0.22586    1.000
    N3631    N        0.52153    0.51313    0.18417    1.000
    N3632    N        0.58034    0.50858    0.15277    1.000
    N3633    N        0.63330    0.50100    0.19866    1.000
    Si3634   Si       0.63689    0.50076    0.24164    1.000
    N3635    N        0.62039    0.53729    0.08395    1.000
    Si3636   Si       0.54258    0.49936    0.34253    1.000
    N3637    N        0.56886    0.50182    0.30887    1.000
    N3638    N        0.49925    0.50209    0.33746    1.000
    Si3639   Si       0.56712    0.48720    0.26782    1.000
    N3640    N        0.59830    0.51693    0.25700    1.000
    N3641    N        0.52909    0.49183    0.24714    1.000
    N3642    N        0.61500    0.48867    0.35907    1.000
    N3643    N        0.55841    0.52798    0.37032    1.000
    Si3644   Si       0.61209    0.49771    0.31776    1.000
    Si3645   Si       0.70901    0.51760    0.34134    1.000
    Si3646   Si       0.70576    0.51162    0.27058    1.000
    N3647    N        0.69062    0.49648    0.30903    1.000
    N3648    N        0.67118    0.52540    0.25028    1.000
    Si3649   Si       0.59947    0.52393    0.37826    1.000
    N3650    N        0.53495    0.52485    0.45127    1.000
    N3651    N        0.59584    0.51000    0.41856    1.000
    Si3652   Si       0.52829    0.48345    0.46071    1.000
    Si3653   Si       0.69352    0.50739    0.42315    1.000
    Si3654   Si       0.63151    0.51260    0.46453    1.000
    N3655    N        0.70782    0.49838    0.38165    1.000
    N3656    N        0.65687    0.52758    0.43395    1.000
    N3657    N        0.59755    0.53637    0.47582    1.000
    N3658    N        0.71838    0.47956    0.24341    1.000
    N3659    N        0.57469    0.51272    0.59550    1.000
    Si3660   Si       0.55469    0.48934    0.53312    1.000
    N3661    N        0.52026    0.48357    0.56033    1.000
    Si3662   Si       0.54211    0.49606    0.61791    1.000
    N3663    N        0.51853    0.53626    0.70080    1.000
    N3664    N        0.55422    0.53371    0.52950    1.000
    Si3665   Si       0.61639    0.51077    0.60304    1.000
    N3666    N        0.64226    0.50242    0.56929    1.000
    N3667    N        0.70279    0.50639    0.54516    1.000
    Si3668   Si       0.68281    0.49536    0.58149    1.000
    N3669    N        0.65048    0.51433    0.50363    1.000
    Si3670   Si       0.63177    0.48518    0.53010    1.000
    N3671    N        0.69392    0.51807    0.61668    1.000
    Si3672   Si       0.68191    0.53483    0.52334    1.000
    N3673    N        0.51011    0.52642    0.62277    1.000
    N3674    N        0.56229    0.48446    0.72863    1.000
    N3675    N        0.54301    0.49078    0.66314    1.000
    Si3676   Si       0.50428    0.51612    0.66357    1.000
    Si3677   Si       0.55545    0.51579    0.70013    1.000
    N3678    N        0.72912    0.51714    0.72766    1.000
    Si3679   Si       0.69235    0.51218    0.66067    1.000
    N3680    N        0.72749    0.53701    0.66537    1.000
    Si3681   Si       0.62923    0.51439    0.70536    1.000
    N3682    N        0.65675    0.53192    0.67559    1.000
    N3683    N        0.54268    0.51258    0.80321    1.000
    Si3684   Si       0.57364    0.49468    0.82810    1.000
    N3685    N        0.58837    0.51001    0.86637    1.000
    Si3686   Si       0.55255    0.48499    0.77033    1.000
    Si3687   Si       0.63655    0.52758    0.97016    1.000
    N3688    N        0.65326    0.50755    0.81225    1.000
    Si3689   Si       0.63361    0.49284    0.77599    1.000
    N3690    N        0.71953    0.49388    0.81761    1.000
    Si3691   Si       0.72308    0.48302    0.97479    1.000
    Si3692   Si       0.56464    0.48198    0.88924    1.000
    N3693    N        0.53105    0.50162    0.90841    1.000
    Si3694   Si       0.52754    0.49330    0.95161    1.000
    N3695    N        0.54934    0.52410    0.97250    1.000
    Si3696   Si       0.49735    0.52899    0.91349    1.000
    N3697    N        0.70752    0.47985    0.93531    1.000
    N3698    N        0.67407    0.48119    0.87695    1.000
    N3699    N        0.63692    0.49488    0.93991    1.000
    Si3700   Si       0.67312    0.49675    0.91721    1.000
    N3701    N        0.64222    0.52299    0.74676    1.000
    N3702    N        0.48538    0.50815    0.95108    1.000
    Si3703   Si       0.73228    0.53598    0.82238    1.000
    Si3704   Si       0.68092    0.48026    0.83323    1.000
    N3705    N        0.57101    0.55679    0.03796    1.000
    N3706    N        0.51186    0.56984    0.00885    1.000
    Si3707   Si       0.53993    0.58572    0.03966    1.000
    Si3708   Si       0.60822    0.56895    0.05723    1.000
    N3709    N        0.69481    0.59197    0.24663    1.000
    N3710    N        0.63555    0.56809    0.21232    1.000
    Si3711   Si       0.73464    0.55014    0.11056    1.000
    Si3712   Si       0.67739    0.55478    0.02264    1.000
    N3713    N        0.64467    0.58060    0.03577    1.000
    N3714    N        0.70916    0.58144    0.02307    1.000
    N3715    N        0.69205    0.55192    0.11170    1.000
    N3716    N        0.56906    0.56481    0.12600    1.000
    N3717    N        0.52181    0.57675    0.16783    1.000
    N3718    N        0.51007    0.56739    0.23015    1.000
    N3719    N        0.57735    0.56126    0.19515    1.000
    Si3720   Si       0.54946    0.54148    0.16101    1.000
    Si3721   Si       0.53964    0.59135    0.20762    1.000
    Si3722   Si       0.61320    0.53838    0.18590    1.000
    N3723    N        0.69694    0.55192    0.18750    1.000
    N3724    N        0.63353    0.54931    0.14862    1.000
    Si3725   Si       0.67494    0.56329    0.15097    1.000
    Si3726   Si       0.67598    0.55924    0.22469    1.000
    Si3727   Si       0.60488    0.59708    0.21419    1.000
    N3728    N        0.50263    0.56878    0.34670    1.000
    Si3729   Si       0.58826    0.54729    0.28705    1.000
    N3730    N        0.57580    0.58913    0.29101    1.000
    N3731    N        0.69142    0.55618    0.33836    1.000
    Si3732   Si       0.64842    0.56346    0.33981    1.000
    Si3733   Si       0.70852    0.58960    0.36230    1.000
    N3734    N        0.73252    0.54345    0.27575    1.000
    N3735    N        0.62221    0.54079    0.31394    1.000
    Si3736   Si       0.73692    0.58379    0.25557    1.000
    Si3737   Si       0.53446    0.56521    0.37347    1.000
    N3738    N        0.58127    0.58257    0.42940    1.000
    Si3739   Si       0.50481    0.55554    0.45083    1.000
    N3740    N        0.51530    0.57465    0.41130    1.000
    Si3741   Si       0.57345    0.54134    0.44047    1.000
    N3742    N        0.51611    0.57886    0.48771    1.000
    Si3743   Si       0.73596    0.54508    0.47355    1.000
    N3744    N        0.62949    0.55401    0.37830    1.000
    Si3745   Si       0.65045    0.56682    0.41419    1.000
    N3746    N        0.72325    0.53694    0.43195    1.000
    N3747    N        0.55907    0.58238    0.59455    1.000
    Si3748   Si       0.51384    0.54981    0.52108    1.000
    Si3749   Si       0.56947    0.54759    0.57008    1.000
    N3750    N        0.50101    0.56517    0.55898    1.000
    Si3751   Si       0.58970    0.55587    0.51145    1.000
    N3752    N        0.60573    0.56139    0.55228    1.000
    N3753    N        0.67880    0.56576    0.55477    1.000
    Si3754   Si       0.64194    0.57295    0.57477    1.000
    Si3755   Si       0.71988    0.57970    0.54017    1.000
    N3756    N        0.63083    0.55039    0.61181    1.000
    N3757    N        0.70395    0.56256    0.49697    1.000
    Si3758   Si       0.59105    0.57869    0.71937    1.000
    N3759    N        0.59136    0.53923    0.70217    1.000
    Si3760   Si       0.48678    0.55997    0.71577    1.000
    Si3761   Si       0.71629    0.55417    0.62577    1.000
    N3762    N        0.63300    0.59125    0.72816    1.000
    Si3763   Si       0.64856    0.56431    0.64790    1.000
    N3764    N        0.68647    0.58252    0.63397    1.000
    N3765    N        0.50767    0.59717    0.72729    1.000
    N3766    N        0.62670    0.59740    0.66220    1.000
    N3767    N        0.51200    0.57822    0.79439    1.000
    N3768    N        0.58042    0.56363    0.82783    1.000
    Si3769   Si       0.53661    0.55294    0.81882    1.000
    N3770    N        0.51549    0.56019    0.85846    1.000
    N3771    N        0.57199    0.58104    0.75972    1.000
    Si3772   Si       0.59835    0.58688    0.79703    1.000
    Si3773   Si       0.59700    0.55226    0.86756    1.000
    N3774    N        0.69662    0.56093    0.82984    1.000
    N3775    N        0.64186    0.57544    0.79383    1.000
    N3776    N        0.69629    0.57638    0.76119    1.000
    Si3777   Si       0.65382    0.54823    0.82632    1.000
    Si3778   Si       0.65393    0.56195    0.75181    1.000
    N3779    N        0.63968    0.55813    0.86691    1.000
    Si3780   Si       0.73187    0.55433    0.74980    1.000
    Si3781   Si       0.68547    0.59120    0.86277    1.000
    Si3782   Si       0.53473    0.58098    0.89228    1.000
    N3783    N        0.50981    0.56703    0.92952    1.000
    N3784    N        0.57766    0.57783    0.89711    1.000
    Si3785   Si       0.53161    0.56458    0.96906    1.000
    Si3786   Si       0.59364    0.59092    0.93564    1.000
    N3787    N        0.55994    0.59492    0.96239    1.000
    N3788    N        0.70803    0.59166    0.95619    1.000
    N3789    N        0.67567    0.53720    0.98451    1.000
    Si3790   Si       0.65120    0.56191    0.90936    1.000
    Si3791   Si       0.70551    0.54734    0.95548    1.000
    N3792    N        0.62380    0.55964    0.94250    1.000
    N3793    N        0.68520    0.53745    0.91945    1.000
    N3794    N        0.55155    0.62295    0.02088    1.000
    Si3795   Si       0.58498    0.63755    0.04302    1.000
    N3796    N        0.59230    0.60616    0.07327    1.000
    Si3797   Si       0.55985    0.60179    0.10330    1.000
    Si3798   Si       0.65463    0.62440    0.03656    1.000
    N3799    N        0.66998    0.63153    0.07751    1.000
    N3800    N        0.68625    0.64044    0.01059    1.000
    Si3801   Si       0.69449    0.61573    0.11041    1.000
    N3802    N        0.61939    0.64233    0.01657    1.000
    N3803    N        0.73291    0.60501    0.09297    1.000
    N3804    N        0.67804    0.64929    0.20471    1.000
    N3805    N        0.56445    0.64091    0.12485    1.000
    N3806    N        0.51995    0.63188    0.20117    1.000
    N3807    N        0.56712    0.61314    0.23235    1.000
    Si3808   Si       0.59350    0.65117    0.15682    1.000
    N3809    N        0.52405    0.59943    0.07986    1.000
    N3810    N        0.61349    0.62161    0.18086    1.000
    N3811    N        0.67239    0.60545    0.14548    1.000
    Si3812   Si       0.65346    0.63628    0.16856    1.000
    Si3813   Si       0.66948    0.62757    0.24318    1.000
    N3814    N        0.52530    0.63624    0.32495    1.000
    Si3815   Si       0.58907    0.62515    0.26893    1.000
    Si3816   Si       0.56391    0.61481    0.32457    1.000
    N3817    N        0.59171    0.64642    0.31139    1.000
    Si3818   Si       0.49324    0.61197    0.33803    1.000
    N3819    N        0.56314    0.59574    0.36329    1.000
    N3820    N        0.68496    0.65009    0.27628    1.000
    Si3821   Si       0.62231    0.64086    0.34069    1.000
    Si3822   Si       0.67660    0.63557    0.31603    1.000
    N3823    N        0.71110    0.62009    0.33293    1.000
    N3824    N        0.64603    0.60577    0.32810    1.000
    N3825    N        0.62720    0.61995    0.24990    1.000
    N3826    N        0.49182    0.62907    0.45183    1.000
    Si3827   Si       0.50162    0.61612    0.41249    1.000
    N3828    N        0.53845    0.64088    0.40920    1.000
    Si3829   Si       0.57652    0.61743    0.40067    1.000
    N3830    N        0.59461    0.64546    0.44186    1.000
    Si3831   Si       0.60471    0.60676    0.45921    1.000
    N3832    N        0.60641    0.64264    0.38050    1.000
    Si3833   Si       0.51225    0.62203    0.49073    1.000
    N3834    N        0.54529    0.65273    0.48897    1.000
    Si3835   Si       0.67453    0.59524    0.48070    1.000
    Si3836   Si       0.67336    0.62461    0.42533    1.000
    N3837    N        0.70361    0.62013    0.45730    1.000
    Si3838   Si       0.72988    0.64995    0.46984    1.000
    N3839    N        0.67980    0.59414    0.39584    1.000
    N3840    N        0.64509    0.59616    0.44768    1.000
    N3841    N        0.50546    0.62909    0.59128    1.000
    Si3842   Si       0.58725    0.61548    0.58878    1.000
    N3843    N        0.57272    0.63495    0.55343    1.000
    N3844    N        0.59690    0.59740    0.49970    1.000
    Si3845   Si       0.61832    0.62100    0.53102    1.000
    N3846    N        0.62991    0.61676    0.57588    1.000
    N3847    N        0.65971    0.61839    0.51433    1.000
    N3848    N        0.73320    0.61538    0.56108    1.000
    Si3849   Si       0.53338    0.60976    0.61869    1.000
    N3850    N        0.57264    0.63357    0.62524    1.000
    N3851    N        0.50979    0.60604    0.65472    1.000
    N3852    N        0.56711    0.60574    0.69305    1.000
    Si3853   Si       0.52494    0.61751    0.69302    1.000
    Si3854   Si       0.59200    0.62281    0.66201    1.000
    N3855    N        0.61201    0.65344    0.68664    1.000
    N3856    N        0.68071    0.63049    0.68803    1.000
    Si3857   Si       0.69229    0.62597    0.64476    1.000
    Si3858   Si       0.64230    0.62152    0.69769    1.000
    N3859    N        0.73462    0.62964    0.63258    1.000
    N3860    N        0.59570    0.62813    0.80936    1.000
    N3861    N        0.53547    0.64261    0.77460    1.000
    Si3862   Si       0.53245    0.60145    0.76263    1.000
    Si3863   Si       0.50688    0.64893    0.86414    1.000
    Si3864   Si       0.68201    0.59789    0.79770    1.000
    Si3865   Si       0.62900    0.64027    0.83506    1.000
    N3866    N        0.66308    0.61676    0.83688    1.000
    N3867    N        0.70073    0.63615    0.79259    1.000
    Si3868   Si       0.73632    0.64941    0.77101    1.000
    Si3869   Si       0.54699    0.63255    0.98085    1.000
    Si3870   Si       0.49300    0.60765    0.92953    1.000
    N3871    N        0.50793    0.63531    0.96099    1.000
    N3872    N        0.51159    0.61780    0.89146    1.000
    Si3873   Si       0.64179    0.63608    0.90853    1.000
    N3874    N        0.72538    0.60016    0.87913    1.000
    N3875    N        0.61789    0.62741    0.94384    1.000
    N3876    N        0.61233    0.64872    0.87574    1.000
    Si3877   Si       0.71587    0.61365    0.99326    1.000
    Si3878   Si       0.70945    0.61107    0.91818    1.000
    N3879    N        0.66706    0.60196    0.90244    1.000
    N3880    N        0.54498    0.65424    0.84676    1.000
    Si3881   Si       0.56100    0.65484    0.80756    1.000
    N3882    N        0.57403    0.67480    0.06180    1.000
    N3883    N        0.51198    0.68189    0.08872    1.000
    Si3884   Si       0.55395    0.67361    0.09912    1.000
    N3885    N        0.71442    0.68262    0.05949    1.000
    Si3886   Si       0.69686    0.68119    0.01768    1.000
    Si3887   Si       0.68567    0.67195    0.08837    1.000
    N3888    N        0.66222    0.70615    0.10059    1.000
    N3889    N        0.71654    0.70356    0.23848    1.000
    N3890    N        0.51767    0.68696    0.22443    1.000
    N3891    N        0.57342    0.67931    0.18366    1.000
    Si3892   Si       0.55327    0.66085    0.21764    1.000
    N3893    N        0.56217    0.71017    0.12350    1.000
    Si3894   Si       0.65213    0.70540    0.14308    1.000
    N3895    N        0.63451    0.66698    0.14514    1.000
    Si3896   Si       0.70356    0.68479    0.20132    1.000
    N3897    N        0.70602    0.65822    0.12588    1.000
    Si3898   Si       0.57505    0.71453    0.04263    1.000
    N3899    N        0.66579    0.71074    0.02542    1.000
    Si3900   Si       0.58825    0.68679    0.29024    1.000
    Si3901   Si       0.52395    0.68140    0.32162    1.000
    N3902    N        0.52544    0.70280    0.36120    1.000
    N3903    N        0.57643    0.66924    0.25283    1.000
    N3904    N        0.49507    0.68066    0.28902    1.000
    Si3905   Si       0.49356    0.70820    0.25400    1.000
    N3906    N        0.55617    0.70991    0.30751    1.000
    Si3907   Si       0.70769    0.68900    0.27819    1.000
    N3908    N        0.65576    0.66800    0.33359    1.000
    N3909    N        0.66110    0.66482    0.41904    1.000
    N3910    N        0.53879    0.69855    0.43491    1.000
    Si3911   Si       0.51763    0.68263    0.39974    1.000
    Si3912   Si       0.55290    0.65698    0.44738    1.000
    N3913    N        0.60592    0.71121    0.41157    1.000
    Si3914   Si       0.68077    0.69288    0.44554    1.000
    N3915    N        0.72231    0.68601    0.44709    1.000
    N3916    N        0.66333    0.68523    0.48446    1.000
    Si3917   Si       0.61944    0.66911    0.41371    1.000
    Si3918   Si       0.65187    0.71057    0.32490    1.000
    N3919    N        0.53991    0.69613    0.60051    1.000
    N3920    N        0.49989    0.69580    0.55201    1.000
    Si3921   Si       0.49943    0.67203    0.59090    1.000
    Si3922   Si       0.56932    0.66385    0.52298    1.000
    N3923    N        0.56782    0.70543    0.53784    1.000
    Si3924   Si       0.57626    0.67743    0.61544    1.000
    N3925    N        0.61168    0.68273    0.58936    1.000
    N3926    N        0.61274    0.66154    0.51211    1.000
    N3927    N        0.67341    0.67266    0.55956    1.000
    Si3928   Si       0.67699    0.65878    0.51633    1.000
    Si3929   Si       0.69588    0.70845    0.57212    1.000
    N3930    N        0.71902    0.65861    0.51116    1.000
    Si3931   Si       0.62603    0.70008    0.49861    1.000
    Si3932   Si       0.64602    0.65734    0.58839    1.000
    Si3933   Si       0.70924    0.65979    0.70111    1.000
    Si3934   Si       0.60254    0.69449    0.68070    1.000
    N3935    N        0.57192    0.69942    0.65224    1.000
    Si3936   Si       0.49598    0.68874    0.68533    1.000
    N3937    N        0.49529    0.68246    0.64111    1.000
    N3938    N        0.51953    0.65780    0.70707    1.000
    N3939    N        0.70039    0.69153    0.67176    1.000
    N3940    N        0.71911    0.67670    0.74127    1.000
    Si3941   Si       0.66823    0.69493    0.64269    1.000
    N3942    N        0.58718    0.71314    0.71671    1.000
    N3943    N        0.66503    0.65390    0.62664    1.000
    N3944    N        0.73667    0.69209    0.57196    1.000
    Si3945   Si       0.52968    0.71470    0.64033    1.000
    N3946    N        0.57471    0.69649    0.80167    1.000
    Si3947   Si       0.51679    0.67019    0.74817    1.000
    N3948    N        0.52842    0.71078    0.75222    1.000
    N3949    N        0.50700    0.70958    0.81674    1.000
    N3950    N        0.72324    0.69341    0.98448    1.000
    N3951    N        0.66730    0.67038    0.91141    1.000
    Si3952   Si       0.61484    0.71108    0.80758    1.000
    Si3953   Si       0.68509    0.67133    0.81598    1.000
    N3954    N        0.64205    0.67825    0.81843    1.000
    N3955    N        0.71010    0.66601    0.85302    1.000
    Si3956   Si       0.57653    0.66772    0.87384    1.000
    N3957    N        0.51629    0.69323    0.99207    1.000
    N3958    N        0.50189    0.68542    0.89227    1.000
    Si3959   Si       0.55152    0.70357    0.96995    1.000
    N3960    N        0.57295    0.66659    0.96975    1.000
    N3961    N        0.57440    0.70650    0.88934    1.000
    N3962    N        0.63725    0.69192    0.96716    1.000
    Si3963   Si       0.70838    0.67199    0.89473    1.000
    Si3964   Si       0.61495    0.65633    0.97576    1.000
    Si3965   Si       0.66863    0.71217    0.92888    1.000
    N3966    N        0.72499    0.64941    0.92797    1.000
    N3967    N        0.53654    0.73413    0.05211    1.000
    Si3968   Si       0.59457    0.73875    0.10806    1.000
    Si3969   Si       0.51454    0.73079    0.01448    1.000
    Si3970   Si       0.49930    0.72145    0.07400    1.000
    N3971    N        0.57030    0.72722    0.00174    1.000
    N3972    N        0.60799    0.73166    0.06713    1.000
    N3973    N        0.67745    0.71319    0.17854    1.000
    Si3974   Si       0.58446    0.76943    0.99928    1.000
    N3975    N        0.72929    0.75386    0.01218    1.000
    Si3976   Si       0.65196    0.72997    0.06330    1.000
    N3977    N        0.67545    0.76490    0.06608    1.000
    N3978    N        0.56518    0.75226    0.18774    1.000
    Si3979   Si       0.57526    0.71734    0.16561    1.000
    Si3980   Si       0.73707    0.74359    0.23472    1.000
    N3981    N        0.71403    0.76246    0.20240    1.000
    Si3982   Si       0.67206    0.75061    0.19816    1.000
    N3983    N        0.65042    0.74435    0.23483    1.000
    N3984    N        0.61495    0.73244    0.14612    1.000
    N3985    N        0.71722    0.77090    0.12494    1.000
    Si3986   Si       0.55065    0.74430    0.28043    1.000
    N3987    N        0.51221    0.74579    0.26074    1.000
    Si3988   Si       0.54805    0.73620    0.34325    1.000
    N3989    N        0.58273    0.75649    0.25466    1.000
    N3990    N        0.53625    0.76889    0.31379    1.000
    Si3991   Si       0.49233    0.76852    0.29156    1.000
    N3992    N        0.69001    0.72064    0.30305    1.000
    Si3993   Si       0.62373    0.74904    0.26801    1.000
    Si3994   Si       0.71666    0.75331    0.31012    1.000
    N3995    N        0.64994    0.73317    0.36027    1.000
    N3996    N        0.73326    0.76543    0.27107    1.000
    N3997    N        0.62198    0.71385    0.29458    1.000
    N3998    N        0.49121    0.74606    0.44335    1.000
    N3999    N        0.56682    0.75752    0.37453    1.000
    Si4000   Si       0.57393    0.72446    0.43766    1.000
    N4001    N        0.59487    0.72039    0.47665    1.000
    N4002    N        0.55841    0.76460    0.43818    1.000
    N4003    N        0.52965    0.73555    0.49393    1.000
    N4004    N        0.66957    0.73495    0.43442    1.000
    Si4005   Si       0.68869    0.76556    0.46114    1.000
    N4006    N        0.73134    0.75533    0.46891    1.000
    Si4007   Si       0.63915    0.73788    0.40111    1.000
    Si4008   Si       0.50815    0.71250    0.46336    1.000
    N4009    N        0.58177    0.75133    0.58276    1.000
    Si4010   Si       0.57156    0.73845    0.50501    1.000
    N4011    N        0.52633    0.76349    0.55447    1.000
    Si4012   Si       0.50765    0.76560    0.51454    1.000
    Si4013   Si       0.53457    0.72074    0.56247    1.000
    Si4014   Si       0.60360    0.71899    0.56458    1.000
    Si4015   Si       0.56378    0.76850    0.61871    1.000
    N4016    N        0.63019    0.72914    0.53133    1.000
    N4017    N        0.69157    0.74794    0.55442    1.000
    N4018    N        0.67822    0.72140    0.61029    1.000
    Si4019   Si       0.67322    0.76492    0.59493    1.000
    Si4020   Si       0.65651    0.76304    0.53309    1.000
    N4021    N        0.52338    0.75452    0.62312    1.000
    N4022    N        0.52149    0.72480    0.68685    1.000
    Si4023   Si       0.54782    0.73086    0.72006    1.000
    Si4024   Si       0.60580    0.74727    0.73490    1.000
    N4025    N        0.56646    0.76830    0.73240    1.000
    N4026    N        0.63153    0.76749    0.70621    1.000
    Si4027   Si       0.63191    0.75747    0.66380    1.000
    N4028    N        0.63729    0.71497    0.66475    1.000
    N4029    N        0.70455    0.76080    0.67442    1.000
    Si4030   Si       0.72630    0.72511    0.66487    1.000
    N4031    N        0.69120    0.74468    0.74585    1.000
    N4032    N        0.53699    0.76268    0.80447    1.000
    Si4033   Si       0.50580    0.74927    0.83232    1.000
    Si4034   Si       0.54122    0.72059    0.79206    1.000
    N4035    N        0.70773    0.71592    0.90239    1.000
    N4036    N        0.61335    0.74086    0.84149    1.000
    N4037    N        0.62523    0.73419    0.77139    1.000
    Si4038   Si       0.66653    0.74143    0.78184    1.000
    Si4039   Si       0.71836    0.71580    0.76087    1.000
    N4040    N        0.69275    0.70983    0.79591    1.000
    N4041    N        0.52539    0.74927    0.87088    1.000
    Si4042   Si       0.60458    0.73808    0.88434    1.000
    N4043    N        0.53712    0.73335    0.93982    1.000
    Si4044   Si       0.53197    0.71666    0.89979    1.000
    N4045    N        0.51155    0.76739    0.99271    1.000
    Si4046   Si       0.72768    0.75396    0.90778    1.000
    N4047    N        0.68190    0.73789    0.96059    1.000
    Si4048   Si       0.72232    0.73596    0.97489    1.000
    N4049    N        0.64192    0.73869    0.90677    1.000
    Si4050   Si       0.65012    0.72840    0.98915    1.000
    N4051    N        0.62793    0.76409    0.99552    1.000
    N4052    N        0.51757    0.80069    0.07577    1.000
    N4053    N        0.57303    0.79189    0.03304    1.000
    Si4054   Si       0.57888    0.81759    0.10883    1.000
    N4055    N        0.57294    0.77435    0.10276    1.000
    Si4056   Si       0.54822    0.77377    0.06606    1.000
    Si4057   Si       0.69485    0.79318    0.09414    1.000
    N4058    N        0.72111    0.80381    0.06130    1.000
    Si4059   Si       0.69943    0.77744    0.03164    1.000
    N4060    N        0.67540    0.82779    0.11111    1.000
    N4061    N        0.68758    0.80261    0.99997    1.000
    N4062    N        0.48935    0.79986    0.18163    1.000
    N4063    N        0.54292    0.81386    0.22859    1.000
    Si4064   Si       0.57294    0.78250    0.21808    1.000
    N4065    N        0.60728    0.80815    0.20987    1.000
    Si4066   Si       0.51030    0.82957    0.20362    1.000
    Si4067   Si       0.63095    0.81369    0.17433    1.000
    N4068    N        0.61024    0.82547    0.13817    1.000
    N4069    N        0.71736    0.82310    0.16992    1.000
    Si4070   Si       0.72755    0.78143    0.16603    1.000
    N4071    N        0.65802    0.78096    0.17282    1.000
    Si4072   Si       0.53766    0.81322    0.32435    1.000
    N4073    N        0.51268    0.81532    0.35817    1.000
    N4074    N        0.57678    0.82671    0.33173    1.000
    Si4075   Si       0.60935    0.82025    0.30344    1.000
    N4076    N        0.69940    0.79122    0.32413    1.000
    Si4077   Si       0.67031    0.80719    0.29587    1.000
    N4078    N        0.63488    0.78523    0.28848    1.000
    Si4079   Si       0.70883    0.81190    0.35939    1.000
    N4080    N        0.69052    0.82637    0.26285    1.000
    Si4081   Si       0.73102    0.80875    0.26653    1.000
    N4082    N        0.50115    0.80818    0.41743    1.000
    Si4083   Si       0.57933    0.78430    0.40654    1.000
    Si4084   Si       0.51804    0.77948    0.44537    1.000
    N4085    N        0.51198    0.79772    0.48568    1.000
    N4086    N        0.56672    0.82647    0.40833    1.000
    N4087    N        0.67027    0.81995    0.37737    1.000
    N4088    N        0.62363    0.77707    0.40807    1.000
    Si4089   Si       0.65214    0.80900    0.41711    1.000
    Si4090   Si       0.65282    0.82373    0.48037    1.000
    N4091    N        0.68687    0.80397    0.44288    1.000
    N4092    N        0.66526    0.78164    0.49577    1.000
    N4093    N        0.51836    0.83131    0.28978    1.000
    N4094    N        0.54840    0.80558    0.59902    1.000
    Si4095   Si       0.50652    0.79354    0.60179    1.000
    Si4096   Si       0.56321    0.78484    0.55811    1.000
    Si4097   Si       0.58846    0.82271    0.51341    1.000
    N4098    N        0.59012    0.82607    0.55778    1.000
    N4099    N        0.58115    0.77816    0.51812    1.000
    N4100    N        0.71245    0.78583    0.60564    1.000
    N4101    N        0.64841    0.79021    0.56976    1.000
    Si4102   Si       0.73304    0.80323    0.57234    1.000
    N4103    N        0.70850    0.83037    0.55153    1.000
    Si4104   Si       0.63377    0.83040    0.55791    1.000
    N4105    N        0.49559    0.82263    0.63410    1.000
    Si4106   Si       0.56149    0.81048    0.73510    1.000
    N4107    N        0.59598    0.77712    0.64612    1.000
    N4108    N        0.60410    0.81795    0.73885    1.000
    Si4109   Si       0.62341    0.81243    0.63671    1.000
    N4110    N        0.68262    0.81246    0.72025    1.000
    N4111    N        0.65697    0.78375    0.63458    1.000
    Si4112   Si       0.70280    0.77463    0.71613    1.000
    Si4113   Si       0.69904    0.79386    0.64686    1.000
    Si4114   Si       0.63896    0.81029    0.71339    1.000
    N4115    N        0.62982    0.83190    0.51478    1.000
    Si4116   Si       0.55613    0.79864    0.81176    1.000
    N4117    N        0.54297    0.81379    0.85082    1.000
    N4118    N        0.59939    0.80110    0.81022    1.000
    N4119    N        0.54787    0.82311    0.77516    1.000
    Si4120   Si       0.63097    0.77930    0.83305    1.000
    Si4121   Si       0.68340    0.81592    0.79964    1.000
    N4122    N        0.72281    0.81596    0.78565    1.000
    N4123    N        0.66471    0.77577    0.80545    1.000
    N4124    N        0.64562    0.80366    0.87003    1.000
    Si4125   Si       0.59469    0.80678    0.92979    1.000
    Si4126   Si       0.54500    0.78559    0.88383    1.000
    N4127    N        0.52484    0.80117    0.92107    1.000
    N4128    N        0.57391    0.79169    0.96328    1.000
    N4129    N        0.58503    0.77767    0.89688    1.000
    Si4130   Si       0.49206    0.82681    0.91139    1.000
    Si4131   Si       0.53517    0.77401    0.95517    1.000
    N4132    N        0.70106    0.78781    0.90495    1.000
    Si4133   Si       0.71486    0.82885    0.91141    1.000
    N4134    N        0.63803    0.80197    0.94002    1.000
    Si4135   Si       0.64748    0.80060    0.98299    1.000
    Si4136   Si       0.65810    0.78088    0.90733    1.000
    N4137    N        0.56954    0.86312    0.02419    1.000
    Si4138   Si       0.52704    0.87048    0.02427    1.000
    N4139    N        0.51705    0.87247    0.06482    1.000
    Si4140   Si       0.50898    0.84209    0.09544    1.000
    N4141    N        0.50281    0.83931    0.00888    1.000
    N4142    N        0.54598    0.84203    0.11892    1.000
    N4143    N        0.60412    0.83394    0.07826    1.000
    Si4144   Si       0.59374    0.82980    0.03500    1.000
    Si4145   Si       0.63601    0.84555    0.10704    1.000
    N4146    N        0.69280    0.86915    0.01011    1.000
    Si4147   Si       0.64860    0.86836    0.00464    1.000
    N4148    N        0.62743    0.83002    0.00834    1.000
    Si4149   Si       0.73608    0.85073    0.19662    1.000
    N4150    N        0.52878    0.86344    0.18178    1.000
    Si4151   Si       0.54146    0.87592    0.14326    1.000
    N4152    N        0.59557    0.87960    0.20535    1.000
    N4153    N        0.50261    0.88505    0.12348    1.000
    Si4154   Si       0.61034    0.84791    0.23110    1.000
    N4155    N        0.71186    0.88046    0.21815    1.000
    N4156    N        0.69945    0.88579    0.14617    1.000
    Si4157   Si       0.63520    0.88667    0.19559    1.000
    N4158    N        0.65239    0.85174    0.17426    1.000
    Si4159   Si       0.68667    0.84484    0.14966    1.000
    N4160    N        0.64759    0.87231    0.23544    1.000
    Si4161   Si       0.55428    0.89097    0.20514    1.000
    Si4162   Si       0.58277    0.86591    0.35134    1.000
    Si4163   Si       0.54948    0.84202    0.26099    1.000
    N4164    N        0.59142    0.84085    0.26893    1.000
    N4165    N        0.54517    0.87636    0.36823    1.000
    N4166    N        0.54099    0.88319    0.24651    1.000
    Si4167   Si       0.71380    0.83510    0.45863    1.000
    N4168    N        0.72543    0.85165    0.35198    1.000
    Si4169   Si       0.65156    0.85182    0.35747    1.000
    N4170    N        0.64532    0.83782    0.31712    1.000
    Si4171   Si       0.72967    0.86767    0.31233    1.000
    Si4172   Si       0.68649    0.86677    0.25028    1.000
    N4173    N        0.70239    0.88934    0.28564    1.000
    Si4174   Si       0.52633    0.84174    0.39225    1.000
    N4175    N        0.49611    0.86304    0.46391    1.000
    Si4176   Si       0.59825    0.85297    0.41985    1.000
    Si4177   Si       0.51791    0.83835    0.49147    1.000
    N4178    N        0.48880    0.86623    0.40266    1.000
    N4179    N        0.61490    0.85701    0.38001    1.000
    N4180    N        0.68331    0.85539    0.47832    1.000
    N4181    N        0.62819    0.83345    0.44400    1.000
    Si4182   Si       0.54056    0.87573    0.53259    1.000
    Si4183   Si       0.57212    0.84390    0.59842    1.000
    N4184    N        0.50760    0.84649    0.53265    1.000
    N4185    N        0.56141    0.87978    0.57038    1.000
    N4186    N        0.55921    0.84792    0.50014    1.000
    N4187    N        0.63445    0.83077    0.67563    1.000
    N4188    N        0.61214    0.84797    0.61284    1.000
    Si4189   Si       0.69885    0.86806    0.56599    1.000
    N4190    N        0.65664    0.86679    0.57045    1.000
    Si4191   Si       0.63605    0.88304    0.60418    1.000
    N4192    N        0.71857    0.87970    0.60544    1.000
    N4193    N        0.73545    0.85634    0.72990    1.000
    Si4194   Si       0.70320    0.84648    0.70340    1.000
    Si4195   Si       0.50150    0.83933    0.70121    1.000
    Si4196   Si       0.50964    0.86304    0.62859    1.000
    N4197    N        0.55122    0.86376    0.63579    1.000
    Si4198   Si       0.56074    0.86947    0.67720    1.000
    N4199    N        0.49564    0.87154    0.67200    1.000
    N4200    N        0.54637    0.83534    0.70218    1.000
    N4201    N        0.67219    0.87701    0.70466    1.000
    N4202    N        0.71399    0.83328    0.66097    1.000
    Si4203   Si       0.64161    0.87278    0.67484    1.000
    N4204    N        0.48879    0.87566    0.58902    1.000
    N4205    N        0.48996    0.84059    0.74476    1.000
    N4206    N        0.59459    0.86978    0.79129    1.000
    Si4207   Si       0.51401    0.85326    0.77923    1.000
    Si4208   Si       0.52986    0.85510    0.85074    1.000
    N4209    N        0.50198    0.86394    0.81847    1.000
    N4210    N        0.56196    0.88356    0.85728    1.000
    Si4211   Si       0.60830    0.83071    0.78007    1.000
    N4212    N        0.63286    0.87012    0.85323    1.000
    N4213    N        0.65122    0.84095    0.79003    1.000
    Si4214   Si       0.63448    0.87545    0.80926    1.000
    Si4215   Si       0.66452    0.84432    0.86580    1.000
    N4216    N        0.69767    0.83708    0.83856    1.000
    N4217    N        0.68714    0.86215    0.89719    1.000
    N4218    N        0.50463    0.85916    0.88474    1.000
    N4219    N        0.59289    0.84922    0.91560    1.000
    Si4220   Si       0.59870    0.87647    0.88011    1.000
    Si4221   Si       0.73572    0.84221    0.81837    1.000
    N4222    N        0.49207    0.85827    0.94200    1.000
    Si4223   Si       0.67929    0.87410    0.94145    1.000
    N4224    N        0.71024    0.84532    0.95024    1.000
    N4225    N        0.64298    0.87792    0.96267    1.000
    Si4226   Si       0.71346    0.83561    0.99159    1.000
    Si4227   Si       0.58891    0.90168    0.01525    1.000
    Si4228   Si       0.50069    0.90680    0.08564    1.000
    N4229    N        0.57363    0.93811    0.03460    1.000
    N4230    N        0.51490    0.90641    0.00295    1.000
    N4231    N        0.52230    0.94447    0.08757    1.000
    Si4232   Si       0.65006    0.91058    0.06638    1.000
    Si4233   Si       0.71811    0.93041    0.09285    1.000
    N4234    N        0.69383    0.91022    0.06086    1.000
    N4235    N        0.63014    0.89690    0.02865    1.000
    N4236    N        0.68503    0.94252    0.11664    1.000
    Si4237   Si       0.72165    0.89403    0.03069    1.000
    N4238    N        0.56644    0.91105    0.15092    1.000
    N4239    N        0.53380    0.93046    0.19808    1.000
    Si4240   Si       0.49298    0.94299    0.21004    1.000
    Si4241   Si       0.56371    0.94857    0.17273    1.000
    N4242    N        0.68885    0.93738    0.24292    1.000
    N4243    N        0.73594    0.93505    0.18112    1.000
    N4244    N        0.64637    0.92205    0.17310    1.000
    Si4245   Si       0.72557    0.92122    0.22349    1.000
    Si4246   Si       0.66577    0.90961    0.13563    1.000
    N4247    N        0.64368    0.88828    0.10335    1.000
    Si4248   Si       0.51902    0.90443    0.34516    1.000
    N4249    N        0.53657    0.91501    0.30865    1.000
    Si4250   Si       0.57802    0.93139    0.30775    1.000
    N4251    N        0.59842    0.90000    0.32683    1.000
    Si4252   Si       0.53166    0.91922    0.26674    1.000
    N4253    N        0.51577    0.94272    0.36483    1.000
    N4254    N        0.56858    0.94386    0.26366    1.000
    N4255    N        0.50042    0.94653    0.25312    1.000
    Si4256   Si       0.68915    0.93010    0.28583    1.000
    Si4257   Si       0.63599    0.91606    0.34517    1.000
    N4258    N        0.65555    0.93662    0.31195    1.000
    N4259    N        0.66849    0.89192    0.35820    1.000
    Si4260   Si       0.49712    0.89473    0.43561    1.000
    N4261    N        0.59105    0.89679    0.42919    1.000
    N4262    N        0.52934    0.92239    0.43074    1.000
    Si4263   Si       0.57060    0.93350    0.44351    1.000
    N4264    N        0.56734    0.94695    0.48482    1.000
    N4265    N        0.73580    0.90727    0.39404    1.000
    Si4266   Si       0.62800    0.91991    0.42057    1.000
    N4267    N        0.72501    0.90463    0.46645    1.000
    Si4268   Si       0.67973    0.89848    0.46817    1.000
    N4269    N        0.62745    0.93900    0.37990    1.000
    N4270    N        0.66849    0.90418    0.42678    1.000
    Si4271   Si       0.69196    0.90945    0.38993    1.000
    N4272    N        0.68240    0.92850    0.49990    1.000
    N4273    N        0.52263    0.91496    0.53455    1.000
    Si4274   Si       0.56965    0.91968    0.58363    1.000
    N4275    N        0.52840    0.93511    0.59695    1.000
    Si4276   Si       0.49974    0.91376    0.57122    1.000
    N4277    N        0.60824    0.91553    0.60433    1.000
    N4278    N        0.48903    0.94202    0.66452    1.000
    N4279    N        0.70544    0.93995    0.60581    1.000
    Si4280   Si       0.72343    0.91768    0.50785    1.000
    N4281    N        0.72138    0.90003    0.54614    1.000
    Si4282   Si       0.73589    0.91740    0.58368    1.000
    N4283    N        0.66024    0.89131    0.64052    1.000
    N4284    N        0.54472    0.90483    0.69654    1.000
    Si4285   Si       0.50317    0.91054    0.68819    1.000
    Si4286   Si       0.58521    0.92081    0.70614    1.000
    Si4287   Si       0.69964    0.90887    0.63519    1.000
    N4288    N        0.71167    0.92111    0.67420    1.000
    N4289    N        0.65241    0.94081    0.71921    1.000
    Si4290   Si       0.68704    0.91753    0.70936    1.000
    N4291    N        0.71328    0.92399    0.74181    1.000
    N4292    N        0.60075    0.88500    0.68441    1.000
    Si4293   Si       0.55191    0.92446    0.84796    1.000
    Si4294   Si       0.57116    0.90318    0.77890    1.000
    N4295    N        0.50703    0.92513    0.85154    1.000
    N4296    N        0.56513    0.93514    0.80819    1.000
    Si4297   Si       0.49706    0.91973    0.76188    1.000
    N4298    N        0.53013    0.89432    0.76851    1.000
    N4299    N        0.59440    0.92303    0.74795    1.000
    N4300    N        0.64781    0.91416    0.79742    1.000
    N4301    N        0.70277    0.91164    0.85148    1.000
    Si4302   Si       0.67363    0.93495    0.82425    1.000
    Si4303   Si       0.63425    0.93759    0.75988    1.000
    Si4304   Si       0.71131    0.89987    0.89229    1.000
    Si4305   Si       0.54071    0.92326    0.97305    1.000
    N4306    N        0.53641    0.91833    0.92860    1.000
    N4307    N        0.60240    0.91148    0.90633    1.000
    N4308    N        0.57878    0.90397    0.97364    1.000
    Si4309   Si       0.57021    0.94037    0.91411    1.000
    Si4310   Si       0.50459    0.89163    0.91643    1.000
    N4311    N        0.69681    0.91584    0.93119    1.000
    Si4312   Si       0.60471    0.88519    0.94298    1.000
    N4313    N        0.57633    0.99449    0.05366    1.000
    N4314    N        0.51185    0.99126    0.03909    1.000
    Si4315   Si       0.54317    0.96516    0.05426    1.000
    Si4316   Si       0.60802    0.96729    0.04155    1.000
    Si4317   Si       0.49534    0.97936    0.99834    1.000
    N4318    N        0.63699    0.95379    0.07002    1.000
    Si4319   Si       0.65878    0.97674    0.10150    1.000
    N4320    N        0.62621    0.98724    0.00966    1.000
    N4321    N        0.65931    0.98679    0.19888    1.000
    Si4322   Si       0.73335    0.95714    0.01819    1.000
    Si4323   Si       0.67757    0.97976    0.23670    1.000
    N4324    N        0.70948    0.00679    0.22979    1.000
    N4325    N        0.69415    0.00406    0.09859    1.000
    N4326    N        0.54110    0.00084    0.23243    1.000
    Si4327   Si       0.51586    0.96989    0.12363    1.000
    N4328    N        0.54648    0.98004    0.15209    1.000
    Si4329   Si       0.57790    0.97837    0.23831    1.000
    N4330    N        0.59474    0.96293    0.19966    1.000
    N4331    N        0.63077    0.98013    0.13793    1.000
    Si4332   Si       0.63192    0.96196    0.17601    1.000
    N4333    N        0.59496    0.97029    0.32021    1.000
    Si4334   Si       0.50560    0.97441    0.33768    1.000
    N4335    N        0.52901    0.98943    0.30243    1.000
    Si4336   Si       0.51248    0.98699    0.26248    1.000
    Si4337   Si       0.56973    0.00326    0.30329    1.000
    N4338    N        0.52060    0.00538    0.36786    1.000
    N4339    N        0.66335    0.99605    0.34240    1.000
    Si4340   Si       0.63778    0.97580    0.30946    1.000
    N4341    N        0.65457    0.99021    0.27186    1.000
    Si4342   Si       0.70279    0.97436    0.34146    1.000
    N4343    N        0.71675    0.95791    0.30404    1.000
    Si4344   Si       0.60093    0.97354    0.48130    1.000
    N4345    N        0.56581    0.97020    0.41731    1.000
    Si4346   Si       0.52554    0.95891    0.40474    1.000
    Si4347   Si       0.58963    0.00497    0.42218    1.000
    N4348    N        0.62909    0.00306    0.40947    1.000
    Si4349   Si       0.65335    0.97632    0.38401    1.000
    Si4350   Si       0.72302    0.97793    0.40014    1.000
    N4351    N        0.69724    0.99991    0.48706    1.000
    N4352    N        0.69096    0.95261    0.38240    1.000
    N4353    N        0.61904    0.94871    0.45058    1.000
    N4354    N        0.69189    0.00687    0.41388    1.000
    N4355    N        0.52825    0.99113    0.52336    1.000
    Si4356   Si       0.53715    0.97288    0.61365    1.000
    Si4357   Si       0.61982    0.95615    0.61912    1.000
    Si4358   Si       0.54660    0.94973    0.52203    1.000
    Si4359   Si       0.61164    0.97556    0.55263    1.000
    Si4360   Si       0.67114    0.96909    0.50933    1.000
    N4361    N        0.64012    0.97275    0.58452    1.000
    N4362    N        0.69634    0.97712    0.54510    1.000
    Si4363   Si       0.68292    0.97346    0.58783    1.000
    N4364    N        0.62988    0.97437    0.51177    1.000
    N4365    N        0.58080    0.97280    0.62064    1.000
    N4366    N        0.49075    0.99698    0.70858    1.000
    N4367    N        0.52905    0.99768    0.64890    1.000
    N4368    N        0.59037    0.96050    0.68874    1.000
    Si4369   Si       0.57266    0.98742    0.66096    1.000
    Si4370   Si       0.49114    0.98563    0.66885    1.000
    N4371    N        0.64372    0.97258    0.65277    1.000
    Si4372   Si       0.63316    0.96864    0.69463    1.000
    Si4373   Si       0.71725    0.00770    0.52422    1.000
    Si4374   Si       0.49117    0.00605    0.50900    1.000
    N4375    N        0.69789    0.00878    0.61228    1.000
    Si4376   Si       0.72458    0.00732    0.65545    1.000
    N4377    N        0.57851    0.94802    0.55141    1.000
    Si4378   Si       0.54385    0.96873    0.79165    1.000
    N4379    N        0.51302    0.96027    0.76365    1.000
    N4380    N        0.52838    0.98613    0.83007    1.000
    Si4381   Si       0.49989    0.96699    0.85633    1.000
    Si4382   Si       0.56517    0.99367    0.85383    1.000
    N4383    N        0.60503    0.99787    0.83793    1.000
    N4384    N        0.56817    0.00216    0.77837    1.000
    Si4385   Si       0.60775    0.00122    0.79495    1.000
    Si4386   Si       0.49188    0.99536    0.75112    1.000
    Si4387   Si       0.73478    0.95328    0.76783    1.000
    N4388    N        0.66834    0.97054    0.84628    1.000
    N4389    N        0.63984    0.97731    0.77737    1.000
    Si4390   Si       0.70784    0.98412    0.83065    1.000
    Si4391   Si       0.64166    0.00408    0.86054    1.000
    N4392    N        0.73633    0.98585    0.86340    1.000
    N4393    N        0.71183    0.95010    0.80480    1.000
    N4394    N        0.56349    0.95544    0.87561    1.000
    Si4395   Si       0.55369    0.99668    0.95969    1.000
    N4396    N        0.58646    0.97561    0.93776    1.000
    N4397    N        0.52858    0.96560    0.97434    1.000
    N4398    N        0.49837    0.99364    0.88895    1.000
    N4399    N        0.73221    0.97911    0.94034    1.000
    N4400    N        0.65836    0.97630    0.94997    1.000
    Si4401   Si       0.62291    0.99709    0.93734    1.000
    Si4402   Si       0.69813    0.95213    0.95123    1.000
    N4403    N        0.69635    0.95388    0.99552    1.000
    Si4404   Si       0.66516    0.98154    0.99296    1.000
    Si4405   Si       0.76009    0.02633    0.03808    1.000
    N4406    N        0.79970    0.04730    0.03765    1.000
    Si4407   Si       0.80082    0.03559    0.08235    1.000
    N4408    N        0.83797    0.01754    0.09252    1.000
    N4409    N        0.76404    0.01353    0.08040    1.000
    Si4410   Si       0.87024    0.04829    0.08982    1.000
    N4411    N        0.90378    0.01888    0.08547    1.000
    Si4412   Si       0.97980    0.04300    0.09583    1.000
    N4413    N        0.90552    0.01349    0.00971    1.000
    Si4414   Si       0.79338    0.02896    0.18022    1.000
    N4415    N        0.83627    0.03833    0.17680    1.000
    N4416    N        0.76977    0.03871    0.14471    1.000
    N4417    N        0.76353    0.04319    0.20938    1.000
    Si4418   Si       0.73718    0.05412    0.17699    1.000
    N4419    N        0.93928    0.04524    0.21501    1.000
    Si4420   Si       0.92405    0.06167    0.17889    1.000
    Si4421   Si       0.86884    0.00969    0.18436    1.000
    Si4422   Si       0.98071    0.03750    0.21936    1.000
    Si4423   Si       0.91046    0.02793    0.24233    1.000
    N4424    N        0.96417    0.01243    0.12447    1.000
    N4425    N        0.90545    0.02444    0.16050    1.000
    Si4426   Si       0.73995    0.03170    0.24395    1.000
    N4427    N        0.80983    0.02275    0.33302    1.000
    Si4428   Si       0.85492    0.03659    0.28170    1.000
    Si4429   Si       0.94830    0.03475    0.45447    1.000
    Si4430   Si       0.84960    0.01092    0.34633    1.000
    N4431    N        0.76188    0.00734    0.27056    1.000
    N4432    N        0.82196    0.06295    0.28372    1.000
    Si4433   Si       0.77907    0.01011    0.36215    1.000
    N4434    N        0.88156    0.05690    0.25629    1.000
    N4435    N        0.87748    0.02462    0.31611    1.000
    N4436    N        0.94180    0.04310    0.33743    1.000
    Si4437   Si       0.92051    0.01243    0.31829    1.000
    Si4438   Si       0.77324    0.05607    0.42164    1.000
    N4439    N        0.76695    0.04715    0.37990    1.000
    Si4440   Si       0.84509    0.03172    0.42418    1.000
    N4441    N        0.80288    0.02604    0.43348    1.000
    N4442    N        0.86145    0.02664    0.38368    1.000
    N4443    N        0.98680    0.02828    0.47685    1.000
    N4444    N        0.91189    0.04790    0.47461    1.000
    N4445    N        0.95301    0.04457    0.41457    1.000
    Si4446   Si       0.94224    0.06294    0.37745    1.000
    N4447    N        0.81861    0.03632    0.55662    1.000
    Si4448   Si       0.77640    0.03718    0.54760    1.000
    N4449    N        0.75810    0.04452    0.58676    1.000
    Si4450   Si       0.87216    0.04949    0.67597    1.000
    N4451    N        0.92836    0.03953    0.59126    1.000
    Si4452   Si       0.88814    0.02506    0.60351    1.000
    Si4453   Si       0.96659    0.03249    0.61161    1.000
    N4454    N        0.98434    0.05883    0.54329    1.000
    Si4455   Si       0.95053    0.05133    0.67973    1.000
    Si4456   Si       0.78215    0.03526    0.62015    1.000
    N4457    N        0.75217    0.04009    0.65127    1.000
    N4458    N        0.77500    0.03995    0.71484    1.000
    N4459    N        0.84942    0.02747    0.70883    1.000
    N4460    N        0.87183    0.06253    0.58607    1.000
    Si4461   Si       0.75774    0.06639    0.68523    1.000
    N4462    N        0.95771    0.02058    0.65089    1.000
    N4463    N        0.87952    0.01889    0.64652    1.000
    N4464    N        0.95390    0.02261    0.71205    1.000
    N4465    N        0.82288    0.03760    0.78568    1.000
    N4466    N        0.78291    0.02365    0.84029    1.000
    N4467    N        0.85212    0.03672    0.84972    1.000
    Si4468   Si       0.82272    0.01733    0.82327    1.000
    Si4469   Si       0.76364    0.05296    0.86630    1.000
    Si4470   Si       0.84549    0.04355    0.74853    1.000
    N4471    N        0.88579    0.03707    0.76358    1.000
    N4472    N        0.94969    0.04678    0.77612    1.000
    Si4473   Si       0.89307    0.02337    0.84524    1.000
    N4474    N        0.96867    0.04335    0.86259    1.000
    Si4475   Si       0.96301    0.01374    0.75232    1.000
    N4476    N        0.91208    0.06106    0.82946    1.000
    Si4477   Si       0.91152    0.06255    0.78526    1.000
    N4478    N        0.75256    0.03559    0.90423    1.000
    Si4479   Si       0.82348    0.04153    0.95264    1.000
    N4480    N        0.84410    0.03528    0.91399    1.000
    N4481    N        0.85005    0.05011    0.98745    1.000
    Si4482   Si       0.83620    0.06279    0.87985    1.000
    Si4483   Si       0.89242    0.04500    0.98092    1.000
    N4484    N        0.97897    0.02915    0.99105    1.000
    Si4485   Si       0.94998    0.02046    0.89781    1.000
    N4486    N        0.95065    0.05265    0.92809    1.000
    N4487    N        0.89375    0.01287    0.95092    1.000
    N4488    N        0.90802    0.01388    0.88487    1.000
    N4489    N        0.73614    0.04682    0.96823    1.000
    N4490    N        0.73783    0.06920    0.77582    1.000
    Si4491   Si       0.87554    0.00647    0.91319    1.000
    Si4492   Si       0.98473    0.05065    0.95462    1.000
    N4493    N        0.82178    0.10568    0.00641    1.000
    Si4494   Si       0.79418    0.11448    0.08036    1.000
    N4495    N        0.79364    0.07494    0.09723    1.000
    N4496    N        0.86004    0.07822    0.05907    1.000
    N4497    N        0.88636    0.08137    0.19197    1.000
    N4498    N        0.94756    0.08932    0.15518    1.000
    Si4499   Si       0.86965    0.11891    0.07800    1.000
    Si4500   Si       0.97677    0.11033    0.07044    1.000
    N4501    N        0.95470    0.07707    0.09149    1.000
    Si4502   Si       0.92225    0.08765    0.11917    1.000
    Si4503   Si       0.75857    0.08032    0.12290    1.000
    N4504    N        0.74862    0.09456    0.16193    1.000
    N4505    N        0.83662    0.10997    0.23314    1.000
    N4506    N        0.83393    0.11422    0.16056    1.000
    Si4507   Si       0.85556    0.07440    0.16043    1.000
    Si4508   Si       0.98336    0.11669    0.14602    1.000
    Si4509   Si       0.87695    0.09287    0.23338    1.000
    N4510    N        0.88039    0.07147    0.12439    1.000
    Si4511   Si       0.83461    0.06900    0.02436    1.000
    N4512    N        0.83706    0.08356    0.35050    1.000
    Si4513   Si       0.81078    0.10274    0.26685    1.000
    N4514    N        0.76504    0.07990    0.32049    1.000
    N4515    N        0.76941    0.11162    0.26100    1.000
    N4516    N        0.89692    0.11364    0.46140    1.000
    Si4517   Si       0.74213    0.07406    0.35519    1.000
    Si4518   Si       0.91679    0.08846    0.49024    1.000
    Si4519   Si       0.98690    0.10827    0.25669    1.000
    Si4520   Si       0.97066    0.07470    0.32176    1.000
    N4521    N        0.95756    0.10035    0.28775    1.000
    N4522    N        0.96993    0.09349    0.35976    1.000
    N4523    N        0.88941    0.11900    0.31516    1.000
    N4524    N        0.90882    0.12037    0.24592    1.000
    Si4525   Si       0.86534    0.07029    0.37909    1.000
    Si4526   Si       0.97057    0.12410    0.46046    1.000
    N4527    N        0.82583    0.09081    0.48449    1.000
    Si4528   Si       0.82621    0.10181    0.44508    1.000
    N4529    N        0.78610    0.09806    0.42492    1.000
    N4530    N        0.84902    0.07590    0.42106    1.000
    Si4531   Si       0.91038    0.11605    0.41800    1.000
    N4532    N        0.90526    0.08582    0.38879    1.000
    N4533    N        0.95322    0.12061    0.41983    1.000
    N4534    N        0.95979    0.08999    0.48422    1.000
    N4535    N        0.82144    0.12451    0.30259    1.000
    Si4536   Si       0.80736    0.06637    0.32277    1.000
    Si4537   Si       0.80328    0.10073    0.52113    1.000
    N4538    N        0.81936    0.10631    0.56188    1.000
    Si4539   Si       0.82993    0.07028    0.58390    1.000
    Si4540   Si       0.91295    0.07502    0.57242    1.000
    N4541    N        0.92059    0.11328    0.59157    1.000
    N4542    N        0.90734    0.09709    0.53192    1.000
    N4543    N        0.98354    0.07500    0.61177    1.000
    N4544    N        0.96831    0.11433    0.74155    1.000
    Si4545   Si       0.85286    0.11545    0.72079    1.000
    Si4546   Si       0.81721    0.09661    0.64908    1.000
    N4547    N        0.85230    0.08910    0.67949    1.000
    N4548    N        0.77967    0.10057    0.67208    1.000
    N4549    N        0.89811    0.11829    0.71315    1.000
    N4550    N        0.91271    0.07261    0.67116    1.000
    Si4551   Si       0.89116    0.11166    0.67137    1.000
    N4552    N        0.98329    0.07680    0.68145    1.000
    N4553    N        0.76875    0.07102    0.52210    1.000
    N4554    N        0.81297    0.06397    0.62269    1.000
    N4555    N        0.78915    0.10840    0.80019    1.000
    Si4556   Si       0.82310    0.08197    0.78971    1.000
    Si4557   Si       0.74870    0.09541    0.80826    1.000
    N4558    N        0.85793    0.09918    0.81312    1.000
    N4559    N        0.90941    0.08368    0.97542    1.000
    Si4560   Si       0.97380    0.08272    0.77027    1.000
    N4561    N        0.91011    0.10319    0.77341    1.000
    Si4562   Si       0.88754    0.09528    0.84576    1.000
    Si4563   Si       0.94994    0.08016    0.84418    1.000
    N4564    N        0.97223    0.09994    0.81224    1.000
    N4565    N        0.92596    0.11283    0.86218    1.000
    N4566    N        0.79666    0.07926    0.87318    1.000
    N4567    N        0.74916    0.10328    0.91142    1.000
    Si4568   Si       0.81149    0.11136    0.96260    1.000
    N4569    N        0.79729    0.07524    0.94625    1.000
    Si4570   Si       0.78137    0.11744    0.88643    1.000
    N4571    N        0.85043    0.11788    0.94224    1.000
    N4572    N        0.86152    0.09599    0.88090    1.000
    N4573    N        0.98201    0.09462    0.96633    1.000
    N4574    N        0.92229    0.12444    0.93034    1.000
    Si4575   Si       0.88915    0.12069    0.95996    1.000
    Si4576   Si       0.94243    0.09084    0.94996    1.000
    Si4577   Si       0.75795    0.06534    0.93495    1.000
    N4578    N        0.83634    0.08530    0.74814    1.000
    Si4579   Si       0.79745    0.13974    0.01380    1.000
    N4580    N        0.82606    0.17327    0.01323    1.000
    N4581    N        0.77472    0.13835    0.04990    1.000
    Si4582   Si       0.74098    0.14796    0.07375    1.000
    N4583    N        0.83293    0.13148    0.09304    1.000
    N4584    N        0.99001    0.13244    0.10561    1.000
    Si4585   Si       0.86807    0.17296    0.01585    1.000
    N4586    N        0.88161    0.15327    0.05211    1.000
    N4587    N        0.95414    0.14168    0.05408    1.000
    Si4588   Si       0.91882    0.16212    0.07134    1.000
    Si4589   Si       0.98088    0.17510    0.04446    1.000
    N4590    N        0.93197    0.17964    0.11209    1.000
    N4591    N        0.90594    0.12555    0.10136    1.000
    Si4592   Si       0.97898    0.17381    0.11656    1.000
    Si4593   Si       0.76598    0.14504    0.23441    1.000
    N4594    N        0.78349    0.13691    0.19636    1.000
    N4595    N        0.79559    0.16953    0.14227    1.000
    Si4596   Si       0.76520    0.13944    0.15468    1.000
    Si4597   Si       0.83097    0.14867    0.13120    1.000
    N4598    N        0.84367    0.17116    0.20770    1.000
    Si4599   Si       0.82645    0.13330    0.19891    1.000
    Si4600   Si       0.90621    0.15543    0.13704    1.000
    Si4601   Si       0.93017    0.14694    0.22036    1.000
    N4602    N        0.97126    0.14228    0.23393    1.000
    N4603    N        0.86637    0.17208    0.13262    1.000
    N4604    N        0.97207    0.15688    0.15940    1.000
    N4605    N        0.90705    0.14980    0.18045    1.000
    Si4606   Si       0.88369    0.18448    0.19710    1.000
    N4607    N        0.76160    0.12519    0.10972    1.000
    Si4608   Si       0.80216    0.16145    0.29910    1.000
    N4609    N        0.76678    0.16182    0.32307    1.000
    N4610    N        0.79748    0.16952    0.25555    1.000
    N4611    N        0.83955    0.15273    0.36604    1.000
    N4612    N        0.88710    0.17214    0.49275    1.000
    N4613    N        0.92995    0.16896    0.29327    1.000
    Si4614   Si       0.94793    0.17804    0.33062    1.000
    Si4615   Si       0.97158    0.12982    0.38161    1.000
    N4616    N        0.83727    0.14474    0.43849    1.000
    Si4617   Si       0.82245    0.16735    0.40458    1.000
    N4618    N        0.77777    0.16803    0.41212    1.000
    Si4619   Si       0.75713    0.12719    0.40988    1.000
    N4620    N        0.96049    0.15656    0.48579    1.000
    N4621    N        0.89739    0.16072    0.41837    1.000
    Si4622   Si       0.87564    0.15125    0.45685    1.000
    N4623    N        0.94382    0.16103    0.36954    1.000
    Si4624   Si       0.84988    0.12411    0.33532    1.000
    Si4625   Si       0.92172    0.12663    0.28868    1.000
    Si4626   Si       0.82663    0.14278    0.58387    1.000
    N4627    N        0.77992    0.13585    0.50718    1.000
    N4628    N        0.79884    0.17554    0.59183    1.000
    Si4629   Si       0.74392    0.14946    0.52461    1.000
    N4630    N        0.86308    0.15361    0.56153    1.000
    Si4631   Si       0.90117    0.13343    0.55679    1.000
    N4632    N        0.92659    0.16851    0.54748    1.000
    Si4633   Si       0.95034    0.13737    0.61081    1.000
    N4634    N        0.93733    0.17897    0.61303    1.000
    N4635    N        0.98060    0.13050    0.57663    1.000
    Si4636   Si       0.92863    0.17860    0.50473    1.000
    Si4637   Si       0.92631    0.12858    0.74142    1.000
    N4638    N        0.97591    0.13347    0.64644    1.000
    N4639    N        0.74352    0.12745    0.61986    1.000
    N4640    N        0.74514    0.14302    0.73755    1.000
    Si4641   Si       0.76555    0.17481    0.71300    1.000
    N4642    N        0.82980    0.13064    0.62640    1.000
    Si4643   Si       0.75169    0.13170    0.66083    1.000
    Si4644   Si       0.84529    0.16010    0.65557    1.000
    N4645    N        0.83503    0.15013    0.69772    1.000
    N4646    N        0.77256    0.16952    0.66863    1.000
    Si4647   Si       0.83710    0.17845    0.72937    1.000
    N4648    N        0.88816    0.15075    0.65341    1.000
    Si4649   Si       0.98150    0.17224    0.66657    1.000
    N4650    N        0.82466    0.16430    0.82183    1.000
    Si4651   Si       0.78605    0.14858    0.81842    1.000
    N4652    N        0.76405    0.13957    0.85484    1.000
    N4653    N        0.85527    0.14700    0.75458    1.000
    N4654    N        0.76531    0.17944    0.79610    1.000
    Si4655   Si       0.86229    0.17124    0.83794    1.000
    N4656    N        0.89332    0.15940    0.81223    1.000
    N4657    N        0.96411    0.17456    0.81635    1.000
    Si4658   Si       0.92754    0.17926    0.79377    1.000
    N4659    N        0.93479    0.17024    0.75146    1.000
    Si4660   Si       0.87783    0.12799    0.78631    1.000
    N4661    N        0.81155    0.14460    0.90110    1.000
    N4662    N        0.77824    0.13792    0.97527    1.000
    Si4663   Si       0.85169    0.13226    0.90236    1.000
    N4664    N        0.75529    0.17722    0.92739    1.000
    Si4665   Si       0.79816    0.18370    0.91504    1.000
    Si4666   Si       0.74018    0.15159    0.96034    1.000
    Si4667   Si       0.91902    0.14255    0.89219    1.000
    N4668    N        0.88857    0.15450    0.98410    1.000
    N4669    N        0.87836    0.15991    0.88050    1.000
    N4670    N        0.81913    0.23618    0.06576    1.000
    N4671    N        0.80155    0.24014    0.99860    1.000
    N4672    N        0.87069    0.21596    0.00557    1.000
    N4673    N        0.92220    0.20885    0.05625    1.000
    Si4674   Si       0.92436    0.22054    0.09912    1.000
    N4675    N        0.88275    0.23307    0.10414    1.000
    Si4676   Si       0.90193    0.23823    0.02821    1.000
    N4677    N        0.98261    0.19904    0.01000    1.000
    N4678    N        0.87915    0.22205    0.17677    1.000
    N4679    N        0.97827    0.20764    0.21027    1.000
    Si4680   Si       0.74778    0.21201    0.22036    1.000
    Si4681   Si       0.79183    0.20960    0.15728    1.000
    N4682    N        0.82547    0.23441    0.14380    1.000
    Si4683   Si       0.81592    0.19735    0.23028    1.000
    N4684    N        0.75491    0.22708    0.13931    1.000
    N4685    N        0.78617    0.21061    0.19963    1.000
    Si4686   Si       0.86229    0.21428    0.13618    1.000
    N4687    N        0.91087    0.18569    0.23174    1.000
    Si4688   Si       0.97238    0.24098    0.01030    1.000
    N4689    N        0.82589    0.22944    0.25737    1.000
    Si4690   Si       0.84621    0.19731    0.35344    1.000
    Si4691   Si       0.84530    0.22600    0.29472    1.000
    N4692    N        0.83166    0.18865    0.31190    1.000
    Si4693   Si       0.98120    0.23961    0.48418    1.000
    Si4694   Si       0.91856    0.20374    0.26997    1.000
    N4695    N        0.94579    0.22059    0.33569    1.000
    N4696    N        0.88880    0.22737    0.29182    1.000
    N4697    N        0.88824    0.20114    0.35804    1.000
    Si4698   Si       0.90338    0.23566    0.33440    1.000
    N4699    N        0.78901    0.23879    0.43272    1.000
    N4700    N        0.74041    0.19736    0.46393    1.000
    Si4701   Si       0.76263    0.20467    0.42582    1.000
    N4702    N        0.83000    0.20868    0.39243    1.000
    N4703    N        0.92939    0.22204    0.41111    1.000
    Si4704   Si       0.91608    0.18699    0.39008    1.000
    N4705    N        0.82382    0.19987    0.53146    1.000
    Si4706   Si       0.78989    0.20181    0.55617    1.000
    N4707    N        0.75314    0.19164    0.53579    1.000
    Si4708   Si       0.84088    0.23885    0.52400    1.000
    Si4709   Si       0.74001    0.21568    0.50235    1.000
    N4710    N        0.86633    0.20698    0.72308    1.000
    N4711    N        0.88208    0.22522    0.53561    1.000
    Si4712   Si       0.94544    0.19705    0.57655    1.000
    N4713    N        0.94416    0.22067    0.50336    1.000
    N4714    N        0.93839    0.23895    0.57222    1.000
    Si4715   Si       0.92119    0.24272    0.53224    1.000
    Si4716   Si       0.84951    0.23707    0.64385    1.000
    N4717    N        0.83059    0.19820    0.64444    1.000
    N4718    N        0.76345    0.22442    0.63575    1.000
    Si4719   Si       0.79058    0.19045    0.63255    1.000
    N4720    N        0.79636    0.18919    0.74191    1.000
    N4721    N        0.96227    0.23334    0.73822    1.000
    N4722    N        0.94240    0.18723    0.68135    1.000
    N4723    N        0.89272    0.22896    0.64366    1.000
    Si4724   Si       0.91315    0.18814    0.64898    1.000
    Si4725   Si       0.95616    0.19405    0.72171    1.000
    Si4726   Si       0.74674    0.24455    0.60018    1.000
    Si4727   Si       0.86597    0.18214    0.53007    1.000
    Si4728   Si       0.78978    0.21335    0.78045    1.000
    N4729    N        0.79257    0.23246    0.82160    1.000
    Si4730   Si       0.74966    0.22508    0.83319    1.000
    Si4731   Si       0.82429    0.23511    0.85280    1.000
    N4732    N        0.86172    0.21441    0.84528    1.000
    N4733    N        0.91331    0.21914    0.79357    1.000
    N4734    N        0.91989    0.22958    0.85999    1.000
    Si4735   Si       0.89361    0.23762    0.82650    1.000
    N4736    N        0.82349    0.19729    0.94749    1.000
    N4737    N        0.81033    0.21643    0.88865    1.000
    Si4738   Si       0.83771    0.23102    0.92067    1.000
    Si4739   Si       0.82990    0.21004    0.98984    1.000
    N4740    N        0.87918    0.22901    0.91111    1.000
    Si4741   Si       0.89284    0.20216    0.88340    1.000
    Si4742   Si       0.95154    0.22313    0.89060    1.000
    Si4743   Si       0.98447    0.21224    0.82716    1.000
    N4744    N        0.93187    0.18428    0.89937    1.000
    N4745    N        0.84498    0.29116    0.10421    1.000
    Si4746   Si       0.74787    0.29080    0.05617    1.000
    N4747    N        0.78885    0.29509    0.04049    1.000
    N4748    N        0.75825    0.29132    0.09969    1.000
    Si4749   Si       0.85516    0.25599    0.07986    1.000
    Si4750   Si       0.79036    0.25097    0.03793    1.000
    N4751    N        0.74810    0.24773    0.04681    1.000
    N4752    N        0.88236    0.27047    0.04908    1.000
    N4753    N        0.93162    0.25415    0.00060    1.000
    N4754    N        0.97938    0.25926    0.04927    1.000
    N4755    N        0.95290    0.24840    0.11469    1.000
    N4756    N        0.88415    0.27697    0.23025    1.000
    N4757    N        0.81298    0.28924    0.23027    1.000
    Si4758   Si       0.83416    0.27582    0.14387    1.000
    N4759    N        0.98315    0.27524    0.23196    1.000
    N4760    N        0.98600    0.29790    0.16445    1.000
    Si4761   Si       0.95402    0.27552    0.14645    1.000
    N4762    N        0.87038    0.28912    0.16666    1.000
    Si4763   Si       0.95587    0.24409    0.21685    1.000
    Si4764   Si       0.89198    0.26188    0.18942    1.000
    N4765    N        0.93465    0.26002    0.18332    1.000
    Si4766   Si       0.81892    0.27780    0.33624    1.000
    N4767    N        0.79358    0.27593    0.30037    1.000
    Si4768   Si       0.79507    0.26243    0.25845    1.000
    Si4769   Si       0.75407    0.29246    0.31025    1.000
    N4770    N        0.97301    0.26169    0.44852    1.000
    N4771    N        0.84554    0.24379    0.33531    1.000
    N4772    N        0.86609    0.28669    0.28709    1.000
    N4773    N        0.90990    0.27925    0.34052    1.000
    Si4774   Si       0.89865    0.26301    0.26729    1.000
    Si4775   Si       0.96885    0.26950    0.27307    1.000
    Si4776   Si       0.94133    0.28985    0.36705    1.000
    N4777    N        0.93555    0.24335    0.25707    1.000
    N4778    N        0.79090    0.26985    0.37089    1.000
    Si4779   Si       0.90132    0.30088    0.49007    1.000
    N4780    N        0.79499    0.30069    0.48361    1.000
    Si4781   Si       0.74718    0.25590    0.37298    1.000
    Si4782   Si       0.81630    0.24835    0.39938    1.000
    N4783    N        0.84119    0.27953    0.41667    1.000
    Si4784   Si       0.79745    0.26017    0.46980    1.000
    Si4785   Si       0.86000    0.27318    0.45379    1.000
    N4786    N        0.92825    0.29527    0.40786    1.000
    N4787    N        0.97854    0.26703    0.37324    1.000
    N4788    N        0.90227    0.26681    0.46122    1.000
    Si4789   Si       0.93252    0.25820    0.43100    1.000
    N4790    N        0.75586    0.24670    0.24631    1.000
    N4791    N        0.83773    0.24848    0.48152    1.000
    Si4792   Si       0.81303    0.27553    0.57747    1.000
    N4793    N        0.83342    0.27860    0.53928    1.000
    N4794    N        0.83917    0.26620    0.61065    1.000
    Si4795   Si       0.75307    0.29229    0.49645    1.000
    N4796    N        0.73877    0.28734    0.60705    1.000
    N4797    N        0.89277    0.29967    0.64667    1.000
    Si4798   Si       0.96227    0.26444    0.59550    1.000
    N4799    N        0.91920    0.28335    0.52331    1.000
    N4800    N        0.84278    0.26099    0.67974    1.000
    N4801    N        0.79316    0.30228    0.70613    1.000
    N4802    N        0.76411    0.25124    0.49689    1.000
    Si4803   Si       0.80921    0.28484    0.74590    1.000
    N4804    N        0.90977    0.25799    0.69825    1.000
    Si4805   Si       0.93520    0.28464    0.72245    1.000
    Si4806   Si       0.91694    0.26191    0.65418    1.000
    N4807    N        0.95614    0.25798    0.63870    1.000
    N4808    N        0.97867    0.29380    0.71785    1.000
    Si4809   Si       0.86953    0.24978    0.71349    1.000
    N4810    N        0.78252    0.24337    0.57375    1.000
    N4811    N        0.78253    0.25129    0.75877    1.000
    Si4812   Si       0.74371    0.26842    0.76775    1.000
    N4813    N        0.83425    0.27476    0.86727    1.000
    Si4814   Si       0.86801    0.29827    0.84773    1.000
    Si4815   Si       0.94325    0.24427    0.77621    1.000
    N4816    N        0.87906    0.27447    0.81350    1.000
    N4817    N        0.92329    0.27977    0.76336    1.000
    Si4818   Si       0.88207    0.28950    0.77113    1.000
    N4819    N        0.97208    0.24804    0.80759    1.000
    N4820    N        0.76520    0.29904    0.97645    1.000
    N4821    N        0.82378    0.26962    0.93716    1.000
    Si4822   Si       0.78878    0.26356    0.96369    1.000
    Si4823   Si       0.74892    0.27237    0.90126    1.000
    Si4824   Si       0.81770    0.29557    0.90115    1.000
    N4825    N        0.75997    0.24679    0.93688    1.000
    Si4826   Si       0.96846    0.29406    0.91659    1.000
    N4827    N        0.89024    0.28795    0.94874    1.000
    N4828    N        0.89887    0.29852    0.87778    1.000
    Si4829   Si       0.92183    0.28930    0.97682    1.000
    Si4830   Si       0.90007    0.26783    0.91046    1.000
    N4831    N        0.94327    0.25890    0.91362    1.000
    N4832    N        0.74009    0.25697    0.86313    1.000
    N4833    N        0.75371    0.29662    0.79807    1.000
    Si4834   Si       0.85041    0.30457    0.95325    1.000
    N4835    N        0.85134    0.27182    0.74598    1.000
    Si4836   Si       0.84936    0.33336    0.09924    1.000
    N4837    N        0.80751    0.34812    0.10199    1.000
    Si4838   Si       0.79404    0.32001    0.00636    1.000
    N4839    N        0.77481    0.35825    0.01388    1.000
    N4840    N        0.86826    0.34303    0.06245    1.000
    Si4841   Si       0.94972    0.33206    0.10062    1.000
    Si4842   Si       0.89476    0.31159    0.04565    1.000
    N4843    N        0.90785    0.32095    0.00340    1.000
    N4844    N        0.93317    0.31325    0.06565    1.000
    Si4845   Si       0.97389    0.30105    0.05398    1.000
    Si4846   Si       0.78045    0.32152    0.12128    1.000
    N4847    N        0.74929    0.34613    0.13602    1.000
    Si4848   Si       0.79611    0.31063    0.19716    1.000
    N4849    N        0.75473    0.31809    0.19855    1.000
    N4850    N        0.80536    0.35434    0.20299    1.000
    N4851    N        0.97875    0.34832    0.21809    1.000
    N4852    N        0.87387    0.35056    0.13268    1.000
    Si4853   Si       0.96012    0.32879    0.18206    1.000
    N4854    N        0.93211    0.31070    0.13489    1.000
    N4855    N        0.91805    0.33633    0.19293    1.000
    Si4856   Si       0.89707    0.32220    0.15637    1.000
    N4857    N        0.80059    0.30014    0.15385    1.000
    N4858    N        0.76297    0.32485    0.33789    1.000
    N4859    N        0.85497    0.34604    0.25414    1.000
    N4860    N        0.84694    0.30740    0.35337    1.000
    N4861    N        0.95730    0.32639    0.35141    1.000
    N4862    N        0.89815    0.34250    0.31085    1.000
    Si4863   Si       0.94220    0.33528    0.31229    1.000
    Si4864   Si       0.87890    0.30541    0.32321    1.000
    Si4865   Si       0.97571    0.33657    0.25791    1.000
    N4866    N        0.94841    0.30653    0.27867    1.000
    Si4867   Si       0.85760    0.34955    0.45943    1.000
    Si4868   Si       0.77299    0.31119    0.37980    1.000
    Si4869   Si       0.84331    0.31767    0.39628    1.000
    N4870    N        0.80489    0.33553    0.39764    1.000
    N4871    N        0.86074    0.31091    0.48033    1.000
    Si4872   Si       0.85339    0.30265    0.24675    1.000
    N4873    N        0.92274    0.33356    0.47018    1.000
    N4874    N        0.87333    0.34108    0.42052    1.000
    Si4875   Si       0.91534    0.33126    0.42764    1.000
    N4876    N        0.82416    0.34879    0.52808    1.000
    N4877    N        0.79511    0.31498    0.57960    1.000
    Si4878   Si       0.82498    0.34589    0.57296    1.000
    Si4879   Si       0.75278    0.31375    0.57480    1.000
    Si4880   Si       0.82844    0.30935    0.51015    1.000
    N4881    N        0.74163    0.35492    0.58670    1.000
    N4882    N        0.73653    0.30464    0.53510    1.000
    N4883    N        0.86205    0.33079    0.58971    1.000
    N4884    N        0.91178    0.34630    0.53687    1.000
    N4885    N        0.97565    0.32691    0.51878    1.000
    Si4886   Si       0.94203    0.31468    0.54047    1.000
    N4887    N        0.96096    0.30555    0.57781    1.000
    Si4888   Si       0.89257    0.35953    0.57392    1.000
    Si4889   Si       0.85689    0.30325    0.62265    1.000
    Si4890   Si       0.75341    0.31894    0.70656    1.000
    N4891    N        0.82795    0.32494    0.64770    1.000
    N4892    N        0.85825    0.32846    0.70870    1.000
    N4893    N        0.74822    0.36226    0.71791    1.000
    N4894    N        0.96598    0.35597    0.65837    1.000
    Si4895   Si       0.96528    0.33405    0.69772    1.000
    N4896    N        0.97987    0.35498    0.73151    1.000
    Si4897   Si       0.88992    0.32801    0.68051    1.000
    N4898    N        0.92583    0.32182    0.70235    1.000
    Si4899   Si       0.82855    0.30299    0.68573    1.000
    N4900    N        0.79708    0.33326    0.83555    1.000
    Si4901   Si       0.77932    0.33123    0.79534    1.000
    N4902    N        0.80934    0.32406    0.76517    1.000
    Si4903   Si       0.76607    0.33654    0.86523    1.000
    N4904    N        0.86272    0.33958    0.83721    1.000
    N4905    N        0.95891    0.30258    0.95800    1.000
    Si4906   Si       0.89219    0.35329    0.80738    1.000
    N4907    N        0.88061    0.33227    0.77342    1.000
    N4908    N        0.92796    0.34428    0.83226    1.000
    Si4909   Si       0.96437    0.35291    0.81019    1.000
    N4910    N        0.98156    0.31761    0.79143    1.000
    Si4911   Si       0.92302    0.33528    0.87489    1.000
    N4912    N        0.83288    0.31726    0.98817    1.000
    N4913    N        0.84300    0.32761    0.91720    1.000
    N4914    N        0.77639    0.30568    0.89695    1.000
    N4915    N        0.96257    0.33026    0.89172    1.000
    Si4916   Si       0.84697    0.34421    0.74754    1.000
    Si4917   Si       0.79403    0.39585    0.02420    1.000
    N4918    N        0.82242    0.39495    0.05786    1.000
    Si4919   Si       0.80801    0.39195    0.09882    1.000
    N4920    N        0.76842    0.40953    0.10159    1.000
    Si4921   Si       0.86331    0.38566    0.04957    1.000
    N4922    N        0.86944    0.38330    0.00717    1.000
    N4923    N        0.93748    0.37929    0.01958    1.000
    Si4924   Si       0.93366    0.39699    0.05813    1.000
    N4925    N        0.94461    0.37565    0.09537    1.000
    N4926    N        0.89186    0.41261    0.06662    1.000
    Si4927   Si       0.90542    0.36290    0.99490    1.000
    Si4928   Si       0.74407    0.38909    0.13281    1.000
    N4929    N        0.83378    0.40613    0.13169    1.000
    N4930    N        0.75812    0.40034    0.17331    1.000
    Si4931   Si       0.83786    0.37201    0.22485    1.000
    Si4932   Si       0.76324    0.36447    0.19582    1.000
    N4933    N        0.82559    0.40855    0.24489    1.000
    Si4934   Si       0.86968    0.38891    0.15196    1.000
    N4935    N        0.94338    0.40445    0.20108    1.000
    N4936    N        0.97078    0.36655    0.15838    1.000
    Si4937   Si       0.90865    0.37544    0.20648    1.000
    N4938    N        0.86867    0.37496    0.19276    1.000
    Si4939   Si       0.98287    0.38519    0.19482    1.000
    Si4940   Si       0.94630    0.39367    0.13603    1.000
    N4941    N        0.90796    0.40937    0.14687    1.000
    N4942    N        0.76072    0.42061    0.03324    1.000
    N4943    N        0.79414    0.38792    0.30622    1.000
    Si4944   Si       0.75675    0.36734    0.32356    1.000
    N4945    N        0.75353    0.38817    0.35974    1.000
    Si4946   Si       0.82301    0.41410    0.28880    1.000
    N4947    N        0.86343    0.40137    0.30122    1.000
    Si4948   Si       0.98818    0.35959    0.49330    1.000
    Si4949   Si       0.88252    0.36886    0.28052    1.000
    Si4950   Si       0.96329    0.40477    0.30384    1.000
    N4951    N        0.90708    0.38852    0.24831    1.000
    N4952    N        0.96414    0.36533    0.28786    1.000
    N4953    N        0.92785    0.40655    0.32733    1.000
    N4954    N        0.79500    0.40610    0.40717    1.000
    Si4955   Si       0.79341    0.36710    0.42476    1.000
    N4956    N        0.81518    0.36243    0.46095    1.000
    N4957    N        0.86045    0.40806    0.43241    1.000
    N4958    N        0.95420    0.38834    0.48788    1.000
    Si4959   Si       0.88655    0.38352    0.40732    1.000
    Si4960   Si       0.96975    0.38170    0.42169    1.000
    N4961    N        0.92734    0.37019    0.41442    1.000
    N4962    N        0.87024    0.40191    0.37319    1.000
    N4963    N        0.87613    0.37822    0.48803    1.000
    Si4964   Si       0.88607    0.41642    0.33637    1.000
    N4965    N        0.75061    0.35990    0.42618    1.000
    N4966    N        0.75141    0.37055    0.49530    1.000
    N4967    N        0.81295    0.37906    0.60159    1.000
    Si4968   Si       0.76795    0.38561    0.60597    1.000
    N4969    N        0.80954    0.40785    0.51488    1.000
    Si4970   Si       0.85205    0.39052    0.52152    1.000
    Si4971   Si       0.84120    0.41200    0.59287    1.000
    Si4972   Si       0.79448    0.36978    0.49911    1.000
    N4973    N        0.86356    0.38968    0.56300    1.000
    Si4974   Si       0.95372    0.39555    0.57557    1.000
    N4975    N        0.92460    0.37106    0.59891    1.000
    N4976    N        0.93051    0.40955    0.54216    1.000
    Si4977   Si       0.91779    0.37065    0.50013    1.000
    N4978    N        0.89148    0.36652    0.66109    1.000
    N4979    N        0.77097    0.37294    0.64707    1.000
    Si4980   Si       0.81345    0.36618    0.64620    1.000
    N4981    N        0.83269    0.39450    0.67454    1.000
    Si4982   Si       0.83810    0.41668    0.71133    1.000
    Si4983   Si       0.73960    0.37103    0.67502    1.000
    Si4984   Si       0.93044    0.37583    0.64359    1.000
    Si4985   Si       0.87677    0.40863    0.66211    1.000
    N4986    N        0.92085    0.41918    0.64715    1.000
    N4987    N        0.98968    0.37313    0.56755    1.000
    N4988    N        0.81534    0.39345    0.81112    1.000
    Si4989   Si       0.77365    0.39395    0.81859    1.000
    Si4990   Si       0.84544    0.40767    0.78403    1.000
    N4991    N        0.76322    0.37909    0.85947    1.000
    N4992    N        0.75519    0.36578    0.79003    1.000
    Si4993   Si       0.82800    0.36483    0.84088    1.000
    Si4994   Si       0.98419    0.36810    0.88151    1.000
    N4995    N        0.95333    0.38870    0.78643    1.000
    N4996    N        0.88301    0.39620    0.80182    1.000
    Si4997   Si       0.98028    0.39267    0.75142    1.000
    Si4998   Si       0.92135    0.41660    0.80122    1.000
    N4999    N        0.78034    0.41601    0.91916    1.000
    N5000    N        0.80523    0.41091    0.98608    1.000
    N5001    N        0.83256    0.38685    0.87772    1.000
    Si5002   Si       0.74739    0.39869    0.89616    1.000
    Si5003   Si       0.84753    0.40768    0.97839    1.000
    N5004    N        0.85145    0.40199    0.93574    1.000
    Si5005   Si       0.85853    0.36842    0.90779    1.000
    Si5006   Si       0.82235    0.41778    0.90476    1.000
    N5007    N        0.89984    0.36295    0.89776    1.000
    Si5008   Si       0.92139    0.39284    0.92013    1.000
    Si5009   Si       0.95975    0.39146    0.98381    1.000
    N5010    N        0.92597    0.37929    0.95967    1.000
    N5011    N        0.95836    0.39980    0.89405    1.000
    N5012    N        0.83807    0.38759    0.74511    1.000
    Si5013   Si       0.75730    0.43809    0.07178    1.000
    N5014    N        0.78520    0.46905    0.06699    1.000
    N5015    N        0.85657    0.46760    0.03925    1.000
    N5016    N        0.85941    0.46584    0.11271    1.000
    N5017    N        0.91360    0.45619    0.21224    1.000
    Si5018   Si       0.87891    0.45410    0.07529    1.000
    N5019    N        0.95850    0.43166    0.05235    1.000
    Si5020   Si       0.94013    0.46905    0.04316    1.000
    N5021    N        0.92221    0.47619    0.00471    1.000
    Si5022   Si       0.92895    0.42275    0.23778    1.000
    Si5023   Si       0.93055    0.43855    0.17200    1.000
    Si5024   Si       0.76433    0.44266    0.17540    1.000
    N5025    N        0.79586    0.46508    0.15349    1.000
    Si5026   Si       0.82005    0.44124    0.21757    1.000
    N5027    N        0.85127    0.44178    0.18676    1.000
    N5028    N        0.77763    0.45359    0.21447    1.000
    Si5029   Si       0.83602    0.44802    0.14506    1.000
    N5030    N        0.96897    0.43156    0.14788    1.000
    N5031    N        0.91147    0.48166    0.07300    1.000
    N5032    N        0.82656    0.45865    0.29594    1.000
    N5033    N        0.81751    0.44118    0.35849    1.000
    Si5034   Si       0.84060    0.46891    0.33615    1.000
    Si5035   Si       0.77967    0.42101    0.36634    1.000
    N5036    N        0.95628    0.43126    0.26769    1.000
    N5037    N        0.88272    0.46058    0.34297    1.000
    Si5038   Si       0.97432    0.47206    0.27173    1.000
    Si5039   Si       0.87430    0.42120    0.47121    1.000
    N5040    N        0.75540    0.45427    0.38518    1.000
    Si5041   Si       0.78200    0.44722    0.42142    1.000
    N5042    N        0.82284    0.46177    0.41940    1.000
    N5043    N        0.75540    0.44554    0.45635    1.000
    Si5044   Si       0.83655    0.42530    0.39876    1.000
    N5045    N        0.97017    0.42459    0.43107    1.000
    N5046    N        0.91441    0.43884    0.46839    1.000
    N5047    N        0.98295    0.45482    0.49200    1.000
    Si5048   Si       0.95650    0.42772    0.47076    1.000
    Si5049   Si       0.98148    0.46035    0.40841    1.000
    N5050    N        0.81864    0.44358    0.57348    1.000
    Si5051   Si       0.82625    0.44658    0.53027    1.000
    Si5052   Si       0.78491    0.46140    0.59530    1.000
    N5053    N        0.75704    0.42647    0.59461    1.000
    N5054    N        0.80513    0.47223    0.50010    1.000
    N5055    N        0.74340    0.45774    0.53200    1.000
    N5056    N        0.86556    0.43421    0.51225    1.000
    N5057    N        0.89890    0.45302    0.57825    1.000
    N5058    N        0.96565    0.43123    0.59938    1.000
    Si5059   Si       0.92210    0.44521    0.61305    1.000
    Si5060   Si       0.90207    0.44124    0.53676    1.000
    N5061    N        0.81423    0.45267    0.71398    1.000
    N5062    N        0.75312    0.46259    0.69012    1.000
    N5063    N        0.80167    0.47085    0.63535    1.000
    N5064    N        0.85815    0.43211    0.62941    1.000
    Si5065   Si       0.79327    0.47217    0.67847    1.000
    Si5066   Si       0.84509    0.47434    0.63319    1.000
    N5067    N        0.98075    0.45081    0.66838    1.000
    Si5068   Si       0.88195    0.47582    0.69953    1.000
    N5069    N        0.97624    0.43248    0.73543    1.000
    N5070    N        0.87522    0.43379    0.69878    1.000
    Si5071   Si       0.73795    0.47506    0.73007    1.000
    Si5072   Si       0.76295    0.46663    0.49181    1.000
    N5073    N        0.84391    0.45078    0.77569    1.000
    N5074    N        0.75076    0.43121    0.81681    1.000
    N5075    N        0.76609    0.46925    0.76199    1.000
    Si5076   Si       0.81063    0.46899    0.75363    1.000
    Si5077   Si       0.75424    0.47104    0.80335    1.000
    N5078    N        0.91960    0.45281    0.77834    1.000
    Si5079   Si       0.96224    0.46659    0.82992    1.000
    Si5080   Si       0.96093    0.45854    0.76507    1.000
    N5081    N        0.93380    0.43500    0.83930    1.000
    Si5082   Si       0.88130    0.47424    0.77988    1.000
    Si5083   Si       0.95313    0.47469    0.97333    1.000
    N5084    N        0.84325    0.45669    0.89896    1.000
    N5085    N        0.76307    0.46678    0.95884    1.000
    Si5086   Si       0.77300    0.42482    0.96135    1.000
    Si5087   Si       0.74172    0.46447    0.91531    1.000
    Si5088   Si       0.87388    0.45084    0.93235    1.000
    Si5089   Si       0.94305    0.43726    0.88295    1.000
    N5090    N        0.96512    0.43410    0.97541    1.000
    N5091    N        0.86421    0.44770    0.97430    1.000
    N5092    N        0.90951    0.43542    0.91230    1.000
    N5093    N        0.97279    0.46974    0.87231    1.000
    N5094    N        0.98989    0.45492    0.79918    1.000
    Si5095   Si       0.77413    0.50866    0.08291    1.000
    N5096    N        0.80184    0.50314    0.00584    1.000
    N5097    N        0.81272    0.52381    0.06995    1.000
    Si5098   Si       0.81919    0.48760    0.04456    1.000
    N5099    N        0.96544    0.50329    0.05267    1.000
    Si5100   Si       0.93239    0.51689    0.08619    1.000
    N5101    N        0.87022    0.52092    0.00287    1.000
    N5102    N        0.89797    0.53075    0.11147    1.000
    N5103    N        0.96743    0.50919    0.11463    1.000
    N5104    N        0.74812    0.50809    0.12094    1.000
    Si5105   Si       0.75970    0.48931    0.22965    1.000
    Si5106   Si       0.77557    0.50456    0.15445    1.000
    N5107    N        0.75624    0.51408    0.19130    1.000
    N5108    N        0.86098    0.50124    0.16730    1.000
    Si5109   Si       0.94822    0.50923    0.15375    1.000
    N5110    N        0.91943    0.47755    0.14962    1.000
    N5111    N        0.89290    0.51608    0.22159    1.000
    Si5112   Si       0.88488    0.49418    0.13127    1.000
    Si5113   Si       0.93139    0.49628    0.21905    1.000
    Si5114   Si       0.87298    0.47765    0.20300    1.000
    N5115    N        0.96531    0.49878    0.19337    1.000
    Si5116   Si       0.87807    0.47769    0.00311    1.000
    N5117    N        0.80606    0.53627    0.14851    1.000
    N5118    N        0.84163    0.47538    0.23441    1.000
    N5119    N        0.78295    0.50340    0.26173    1.000
    N5120    N        0.83592    0.51084    0.34879    1.000
    Si5121   Si       0.82402    0.49222    0.26888    1.000
    N5122    N        0.75222    0.50594    0.33199    1.000
    Si5123   Si       0.76840    0.52783    0.29757    1.000
    N5124    N        0.84950    0.52684    0.28006    1.000
    N5125    N        0.94961    0.50307    0.25702    1.000
    N5126    N        0.91435    0.52920    0.34998    1.000
    Si5127   Si       0.90716    0.48833    0.36540    1.000
    N5128    N        0.89015    0.49866    0.40477    1.000
    Si5129   Si       0.75213    0.49417    0.37330    1.000
    N5130    N        0.77731    0.52021    0.39371    1.000
    Si5131   Si       0.85396    0.48880    0.42528    1.000
    N5132    N        0.83239    0.52641    0.42262    1.000
    Si5133   Si       0.81734    0.53041    0.38260    1.000
    N5134    N        0.74817    0.50737    0.49169    1.000
    Si5135   Si       0.90730    0.47963    0.47967    1.000
    N5136    N        0.95064    0.48317    0.38219    1.000
    N5137    N        0.93533    0.50520    0.45930    1.000
    Si5138   Si       0.91208    0.52797    0.43100    1.000
    Si5139   Si       0.95177    0.52576    0.37257    1.000
    Si5140   Si       0.97493    0.49418    0.47328    1.000
    N5141    N        0.86789    0.48645    0.46710    1.000
    N5142    N        0.76991    0.49779    0.57618    1.000
    Si5143   Si       0.74500    0.50549    0.53906    1.000
    N5144    N        0.85437    0.48955    0.53770    1.000
    N5145    N        0.85724    0.50297    0.60507    1.000
    Si5146   Si       0.83965    0.49665    0.49856    1.000
    Si5147   Si       0.94072    0.51515    0.53287    1.000
    N5148    N        0.91337    0.52174    0.56832    1.000
    Si5149   Si       0.88139    0.49224    0.57070    1.000
    Si5150   Si       0.94478    0.51503    0.59791    1.000
    N5151    N        0.98009    0.52376    0.50704    1.000
    N5152    N        0.97659    0.50288    0.56509    1.000
    N5153    N        0.92172    0.47878    0.51987    1.000
    N5154    N        0.92183    0.49042    0.69282    1.000
    N5155    N        0.79211    0.51635    0.68625    1.000
    N5156    N        0.85377    0.49395    0.67043    1.000
    Si5157   Si       0.83338    0.53168    0.67320    1.000
    Si5158   Si       0.85298    0.52793    0.73975    1.000
    N5159    N        0.88335    0.49409    0.74071    1.000
    N5160    N        0.93749    0.48364    0.62528    1.000
    Si5161   Si       0.92456    0.51094    0.73112    1.000
    N5162    N        0.98215    0.51891    0.66686    1.000
    Si5163   Si       0.95556    0.48569    0.66517    1.000
    N5164    N        0.78593    0.49401    0.82309    1.000
    N5165    N        0.81733    0.51026    0.76180    1.000
    Si5166   Si       0.79471    0.52758    0.79444    1.000
    Si5167   Si       0.78553    0.51431    0.86361    1.000
    N5168    N        0.88030    0.50394    0.81260    1.000
    N5169    N        0.94572    0.50560    0.82287    1.000
    Si5170   Si       0.91026    0.52625    0.84193    1.000
    N5171    N        0.96092    0.49982    0.75134    1.000
    Si5172   Si       0.97069    0.53884    0.83174    1.000
    N5173    N        0.82458    0.52642    0.88474    1.000
    Si5174   Si       0.77884    0.50916    0.96896    1.000
    Si5175   Si       0.85621    0.49788    0.89530    1.000
    N5176    N        0.76827    0.48928    0.89425    1.000
    N5177    N        0.73765    0.52381    0.97163    1.000
    Si5178   Si       0.98783    0.51811    0.94287    1.000
    Si5179   Si       0.91106    0.51824    0.92001    1.000
    N5180    N        0.89675    0.51048    0.87860    1.000
    N5181    N        0.87625    0.49681    0.93267    1.000
    N5182    N        0.94727    0.49991    0.93936    1.000
    Si5183   Si       0.99293    0.52746    0.76172    1.000
    Si5184   Si       0.80270    0.56573    0.06225    1.000
    N5185    N        0.82423    0.56930    0.02418    1.000
    N5186    N        0.75259    0.54351    0.07149    1.000
    N5187    N        0.80266    0.58945    0.09961    1.000
    Si5188   Si       0.73641    0.58131    0.05495    1.000
    Si5189   Si       0.96161    0.54294    0.03219    1.000
    N5190    N        0.94016    0.55670    0.06823    1.000
    Si5191   Si       0.89335    0.55834    0.01068    1.000
    N5192    N        0.93584    0.55634    0.00159    1.000
    N5193    N        0.88565    0.58741    0.04154    1.000
    Si5194   Si       0.84214    0.53988    0.17407    1.000
    N5195    N        0.75932    0.57641    0.21917    1.000
    Si5196   Si       0.79208    0.57890    0.13933    1.000
    N5197    N        0.75070    0.56912    0.14653    1.000
    Si5198   Si       0.80396    0.58226    0.21580    1.000
    N5199    N        0.83407    0.54949    0.21433    1.000
    Si5200   Si       0.74094    0.55577    0.18548    1.000
    N5201    N        0.93294    0.54822    0.16190    1.000
    N5202    N        0.86493    0.57158    0.15780    1.000
    Si5203   Si       0.86450    0.54372    0.24206    1.000
    Si5204   Si       0.95824    0.57229    0.18668    1.000
    Si5205   Si       0.90309    0.56640    0.13626    1.000
    N5206    N        0.95263    0.56815    0.22984    1.000
    N5207    N        0.79492    0.55576    0.31621    1.000
    Si5208   Si       0.78455    0.58296    0.35004    1.000
    Si5209   Si       0.83806    0.54349    0.31869    1.000
    N5210    N        0.86905    0.57412    0.33026    1.000
    N5211    N        0.93491    0.56436    0.29348    1.000
    Si5212   Si       0.91149    0.56764    0.33090    1.000
    Si5213   Si       0.96198    0.54257    0.26590    1.000
    N5214    N        0.98162    0.54385    0.34829    1.000
    Si5215   Si       0.92442    0.59026    0.25875    1.000
    N5216    N        0.88446    0.58288    0.25027    1.000
    N5217    N        0.81783    0.57269    0.37295    1.000
    N5218    N        0.74785    0.57811    0.37509    1.000
    Si5219   Si       0.84174    0.55099    0.45503    1.000
    Si5220   Si       0.75753    0.55581    0.41223    1.000
    N5221    N        0.76960    0.56927    0.45417    1.000
    N5222    N        0.83295    0.59247    0.45103    1.000
    Si5223   Si       0.96806    0.58282    0.42125    1.000
    Si5224   Si       0.89365    0.57696    0.49324    1.000
    N5225    N        0.94331    0.54950    0.40794    1.000
    N5226    N        0.88629    0.55270    0.45700    1.000
    N5227    N        0.82959    0.53731    0.49418    1.000
    N5228    N        0.98865    0.57278    0.45879    1.000
    Si5229   Si       0.82958    0.56453    0.52975    1.000
    N5230    N        0.81702    0.55113    0.56814    1.000
    N5231    N        0.75211    0.54934    0.54139    1.000
    N5232    N        0.75223    0.56372    0.60577    1.000
    Si5233   Si       0.84573    0.54562    0.60088    1.000
    Si5234   Si       0.77538    0.54245    0.57669    1.000
    Si5235   Si       0.96118    0.57402    0.71860    1.000
    N5236    N        0.87051    0.57487    0.52949    1.000
    Si5237   Si       0.90252    0.56486    0.55823    1.000
    N5238    N        0.87899    0.57344    0.59597    1.000
    Si5239   Si       0.91713    0.58565    0.61418    1.000
    N5240    N        0.92613    0.55523    0.51473    1.000
    Si5241   Si       0.96907    0.56684    0.49780    1.000
    N5242    N        0.92314    0.55345    0.72166    1.000
    N5243    N        0.75823    0.57207    0.72034    1.000
    N5244    N        0.82541    0.55522    0.63707    1.000
    N5245    N        0.85478    0.55341    0.70376    1.000
    N5246    N        0.96573    0.58652    0.67711    1.000
    N5247    N        0.93976    0.54980    0.62320    1.000
    Si5248   Si       0.97396    0.55541    0.64773    1.000
    Si5249   Si       0.88681    0.57475    0.72759    1.000
    Si5250   Si       0.75531    0.53624    0.69732    1.000
    N5251    N        0.81901    0.56174    0.81138    1.000
    N5252    N        0.76078    0.54600    0.85352    1.000
    N5253    N        0.75480    0.54187    0.78528    1.000
    Si5254   Si       0.85948    0.54467    0.80482    1.000
    Si5255   Si       0.76392    0.58703    0.86580    1.000
    N5256    N        0.86956    0.55809    0.76490    1.000
    N5257    N        0.88470    0.56325    0.83427    1.000
    N5258    N        0.94528    0.55511    0.86049    1.000
    N5259    N        0.98103    0.55642    0.79353    1.000
    N5260    N        0.91427    0.56153    0.93441    1.000
    Si5261   Si       0.81774    0.55597    0.91655    1.000
    N5262    N        0.85226    0.58444    0.91569    1.000
    N5263    N        0.79261    0.58757    0.89937    1.000
    N5264    N        0.81001    0.53604    0.95476    1.000
    Si5265   Si       0.82947    0.53536    0.99428    1.000
    N5266    N        0.98401    0.55941    0.94608    1.000
    Si5267   Si       0.94542    0.57010    0.96176    1.000
    Si5268   Si       0.88435    0.59444    0.94107    1.000
    N5269    N        0.87342    0.58488    0.98179    1.000
    Si5270   Si       0.78620    0.63520    0.02199    1.000
    N5271    N        0.82966    0.63852    0.01156    1.000
    Si5272   Si       0.77487    0.62314    0.08531    1.000
    Si5273   Si       0.85130    0.60236    0.01565    1.000
    N5274    N        0.77279    0.60027    0.04497    1.000
    N5275    N        0.94402    0.62893    0.05866    1.000
    N5276    N        0.90457    0.60363    0.10965    1.000
    Si5277   Si       0.91816    0.59320    0.06903    1.000
    Si5278   Si       0.84924    0.61116    0.16748    1.000
    N5279    N        0.85158    0.64104    0.13585    1.000
    N5280    N        0.80809    0.59942    0.17388    1.000
    N5281    N        0.77809    0.64669    0.12687    1.000
    Si5282   Si       0.86106    0.61758    0.24254    1.000
    Si5283   Si       0.98709    0.63685    0.06488    1.000
    Si5284   Si       0.89247    0.64447    0.12163    1.000
    N5285    N        0.94612    0.61176    0.17403    1.000
    N5286    N        0.86865    0.62852    0.20226    1.000
    Si5287   Si       0.94740    0.65272    0.17703    1.000
    N5288    N        0.78130    0.62345    0.33693    1.000
    N5289    N        0.75589    0.61770    0.27337    1.000
    Si5290   Si       0.79352    0.63691    0.26524    1.000
    Si5291   Si       0.74659    0.63583    0.31423    1.000
    N5292    N        0.84302    0.63788    0.36229    1.000
    Si5293   Si       0.85249    0.59639    0.36680    1.000
    N5294    N        0.94195    0.62605    0.27442    1.000
    Si5295   Si       0.95167    0.62165    0.31662    1.000
    N5296    N        0.92532    0.60496    0.34597    1.000
    Si5297   Si       0.86928    0.61518    0.43957    1.000
    N5298    N        0.77083    0.63710    0.46973    1.000
    Si5299   Si       0.79435    0.59889    0.47206    1.000
    N5300    N        0.81903    0.60724    0.24694    1.000
    N5301    N        0.89569    0.61530    0.47421    1.000
    Si5302   Si       0.91721    0.62389    0.38601    1.000
    N5303    N        0.96078    0.65012    0.47969    1.000
    N5304    N        0.94665    0.61943    0.41786    1.000
    N5305    N        0.88105    0.60121    0.39926    1.000
    Si5306   Si       0.91992    0.64533    0.49378    1.000
    Si5307   Si       0.75281    0.60812    0.59996    1.000
    Si5308   Si       0.81793    0.63446    0.53351    1.000
    N5309    N        0.84731    0.64134    0.56470    1.000
    N5310    N        0.79549    0.61637    0.60406    1.000
    N5311    N        0.80639    0.59702    0.51428    1.000
    Si5312   Si       0.82445    0.64770    0.59951    1.000
    Si5313   Si       0.95214    0.62359    0.55093    1.000
    N5314    N        0.91552    0.64432    0.53877    1.000
    N5315    N        0.97676    0.59697    0.52706    1.000
    Si5316   Si       0.93364    0.63649    0.73762    1.000
    N5317    N        0.81680    0.63394    0.71680    1.000
    Si5318   Si       0.77744    0.61305    0.71340    1.000
    N5319    N        0.84621    0.63010    0.63664    1.000
    N5320    N        0.79136    0.60559    0.66951    1.000
    N5321    N        0.74705    0.64165    0.69635    1.000
    Si5322   Si       0.76647    0.63899    0.65944    1.000
    Si5323   Si       0.83107    0.64619    0.67867    1.000
    Si5324   Si       0.88481    0.64977    0.64118    1.000
    Si5325   Si       0.95517    0.62517    0.66218    1.000
    N5326    N        0.98793    0.63853    0.63715    1.000
    N5327    N        0.94635    0.64730    0.69772    1.000
    N5328    N        0.91757    0.61955    0.64078    1.000
    N5329    N        0.89433    0.61596    0.73915    1.000
    N5330    N        0.93392    0.59260    0.57440    1.000
    Si5331   Si       0.81604    0.59692    0.63667    1.000
    N5332    N        0.77629    0.61761    0.83690    1.000
    N5333    N        0.83216    0.62692    0.78428    1.000
    N5334    N        0.84151    0.61599    0.85307    1.000
    Si5335   Si       0.81541    0.60600    0.81820    1.000
    N5336    N        0.76827    0.62791    0.75575    1.000
    Si5337   Si       0.80707    0.64734    0.75576    1.000
    Si5338   Si       0.87407    0.63589    0.77276    1.000
    N5339    N        0.96198    0.61818    0.82558    1.000
    N5340    N        0.89701    0.62742    0.80795    1.000
    Si5341   Si       0.88313    0.60521    0.84318    1.000
    Si5342   Si       0.93387    0.64898    0.81134    1.000
    Si5343   Si       0.98044    0.59974    0.78977    1.000
    Si5344   Si       0.94920    0.59630    0.86192    1.000
    Si5345   Si       0.82847    0.61266    0.89392    1.000
    N5346    N        0.75463    0.63280    0.99087    1.000
    N5347    N        0.82790    0.65306    0.90936    1.000
    N5348    N        0.97982    0.60256    0.89106    1.000
    N5349    N        0.91246    0.61993    0.87175    1.000
    Si5350   Si       0.93523    0.64962    0.94980    1.000
    N5351    N        0.89694    0.63557    0.93778    1.000
    N5352    N        0.95893    0.61436    0.96003    1.000
    N5353    N        0.96499    0.60822    0.74711    1.000
    N5354    N        0.82585    0.69453    0.09771    1.000
    Si5355   Si       0.75413    0.69301    0.07319    1.000
    Si5356   Si       0.81207    0.69280    0.05798    1.000
    N5357    N        0.83989    0.70285    0.02797    1.000
    N5358    N        0.78024    0.65797    0.05992    1.000
    Si5359   Si       0.85525    0.67276    0.00063    1.000
    N5360    N        0.75156    0.70649    0.11557    1.000
    Si5361   Si       0.91798    0.66502    0.05522    1.000
    N5362    N        0.88977    0.66982    0.08677    1.000
    N5363    N        0.89506    0.66871    0.01615    1.000
    N5364    N        0.93930    0.70597    0.04952    1.000
    Si5365   Si       0.92288    0.70161    0.00527    1.000
    Si5366   Si       0.86714    0.70687    0.09540    1.000
    Si5367   Si       0.97532    0.70818    0.07758    1.000
    N5368    N        0.98312    0.66891    0.09486    1.000
    Si5369   Si       0.81671    0.66887    0.13141    1.000
    N5370    N        0.81219    0.69328    0.16783    1.000
    Si5371   Si       0.78102    0.69375    0.20024    1.000
    N5372    N        0.79474    0.67194    0.23722    1.000
    Si5373   Si       0.74493    0.67116    0.13928    1.000
    N5374    N        0.74486    0.68178    0.18156    1.000
    N5375    N        0.88087    0.70251    0.19347    1.000
    Si5376   Si       0.89035    0.66568    0.21518    1.000
    Si5377   Si       0.90786    0.70911    0.16003    1.000
    N5378    N        0.93334    0.66348    0.21680    1.000
    N5379    N        0.91776    0.66878    0.14912    1.000
    N5380    N        0.98482    0.67361    0.16971    1.000
    N5381    N        0.78903    0.68834    0.35424    1.000
    Si5382   Si       0.81387    0.69756    0.26813    1.000
    N5383    N        0.81221    0.66215    0.29651    1.000
    N5384    N        0.74243    0.67896    0.30269    1.000
    Si5385   Si       0.76832    0.70898    0.32078    1.000
    Si5386   Si       0.81109    0.65484    0.33841    1.000
    Si5387   Si       0.91971    0.70348    0.39987    1.000
    N5388    N        0.88042    0.69118    0.31951    1.000
    Si5389   Si       0.88300    0.69288    0.27717    1.000
    Si5390   Si       0.93008    0.70159    0.32378    1.000
    N5391    N        0.92588    0.69928    0.27747    1.000
    Si5392   Si       0.94591    0.66455    0.25766    1.000
    N5393    N        0.95333    0.66394    0.32688    1.000
    N5394    N        0.84535    0.70709    0.38122    1.000
    N5395    N        0.77850    0.70645    0.47883    1.000
    Si5396   Si       0.85874    0.67710    0.47415    1.000
    Si5397   Si       0.85866    0.66504    0.39288    1.000
    N5398    N        0.85424    0.65790    0.43473    1.000
    Si5399   Si       0.78985    0.66862    0.49241    1.000
    N5400    N        0.90051    0.68153    0.48601    1.000
    N5401    N        0.95646    0.69155    0.41956    1.000
    N5402    N        0.90242    0.66336    0.39024    1.000
    N5403    N        0.87535    0.65680    0.25594    1.000
    N5404    N        0.98580    0.68348    0.26199    1.000
    Si5405   Si       0.96562    0.65373    0.43788    1.000
    N5406    N        0.80965    0.68990    0.59112    1.000
    N5407    N        0.78129    0.65655    0.53368    1.000
    N5408    N        0.83141    0.65762    0.49976    1.000
    Si5409   Si       0.74102    0.65561    0.54681    1.000
    Si5410   Si       0.88810    0.70103    0.69544    1.000
    N5411    N        0.97847    0.70442    0.67047    1.000
    N5412    N        0.98309    0.70416    0.60469    1.000
    N5413    N        0.98086    0.65762    0.54847    1.000
    Si5414   Si       0.88463    0.66268    0.56424    1.000
    Si5415   Si       0.97878    0.69872    0.56109    1.000
    N5416    N        0.88904    0.67840    0.60830    1.000
    N5417    N        0.87383    0.70151    0.54644    1.000
    Si5418   Si       0.96476    0.68701    0.70579    1.000
    N5419    N        0.79756    0.66898    0.66328    1.000
    Si5420   Si       0.78676    0.70964    0.66074    1.000
    N5421    N        0.87233    0.66380    0.68241    1.000
    N5422    N        0.92450    0.70100    0.71963    1.000
    N5423    N        0.81068    0.68904    0.76472    1.000
    N5424    N        0.75573    0.67406    0.80096    1.000
    Si5425   Si       0.78165    0.70844    0.79114    1.000
    Si5426   Si       0.84899    0.70767    0.75899    1.000
    Si5427   Si       0.75366    0.65514    0.84111    1.000
    N5428    N        0.87964    0.67842    0.76512    1.000
    N5429    N        0.93645    0.67876    0.84233    1.000
    Si5430   Si       0.91945    0.69847    0.76223    1.000
    N5431    N        0.94247    0.66232    0.77225    1.000
    N5432    N        0.77161    0.68050    0.87056    1.000
    N5433    N        0.78096    0.68659    0.94817    1.000
    Si5434   Si       0.79553    0.67932    0.90781    1.000
    Si5435   Si       0.74722    0.66581    0.96164    1.000
    N5436    N        0.88740    0.68710    0.89120    1.000
    N5437    N        0.85995    0.69091    0.95819    1.000
    N5438    N        0.95137    0.66699    0.91133    1.000
    Si5439   Si       0.98065    0.71311    0.97051    1.000
    N5440    N        0.94830    0.68391    0.97596    1.000
    Si5441   Si       0.92144    0.66186    0.88085    1.000
    Si5442   Si       0.98542    0.69161    0.89999    1.000
    Si5443   Si       0.86783    0.66416    0.92387    1.000
    Si5444   Si       0.77094    0.75467    0.02552    1.000
    N5445    N        0.77790    0.72127    0.05092    1.000
    N5446    N        0.79433    0.76316    0.10581    1.000
    Si5447   Si       0.86323    0.73960    0.02536    1.000
    N5448    N        0.95506    0.74236    0.09444    1.000
    N5449    N        0.88159    0.73570    0.06706    1.000
    Si5450   Si       0.92321    0.74203    0.06526    1.000
    Si5451   Si       0.92272    0.76825    0.99812    1.000
    Si5452   Si       0.75693    0.74938    0.12355    1.000
    N5453    N        0.83873    0.75614    0.19626    1.000
    N5454    N        0.77908    0.73606    0.22062    1.000
    Si5455   Si       0.79693    0.76750    0.19615    1.000
    Si5456   Si       0.95745    0.77217    0.17757    1.000
    Si5457   Si       0.84721    0.71969    0.17289    1.000
    Si5458   Si       0.86153    0.75502    0.23354    1.000
    N5459    N        0.90389    0.75747    0.23811    1.000
    N5460    N        0.87383    0.72240    0.13582    1.000
    N5461    N        0.94293    0.73228    0.17276    1.000
    N5462    N        0.97185    0.75487    0.24672    1.000
    N5463    N        0.79843    0.72799    0.29561    1.000
    Si5464   Si       0.82724    0.76059    0.29721    1.000
    N5465    N        0.74704    0.74080    0.34003    1.000
    N5466    N        0.85448    0.75410    0.33155    1.000
    N5467    N        0.91746    0.72000    0.36141    1.000
    N5468    N        0.96738    0.72833    0.31716    1.000
    Si5469   Si       0.96664    0.72231    0.27472    1.000
    Si5470   Si       0.98244    0.75857    0.34278    1.000
    Si5471   Si       0.87329    0.72032    0.35067    1.000
    Si5472   Si       0.87603    0.74408    0.45814    1.000
    N5473    N        0.80537    0.76229    0.38463    1.000
    Si5474   Si       0.74938    0.72040    0.44875    1.000
    Si5475   Si       0.75962    0.75771    0.37958    1.000
    N5476    N        0.84339    0.71915    0.47013    1.000
    N5477    N        0.76464    0.72578    0.40954    1.000
    Si5478   Si       0.80305    0.71540    0.38653    1.000
    Si5479   Si       0.80980    0.73238    0.49188    1.000
    N5480    N        0.97979    0.74948    0.38675    1.000
    N5481    N        0.85227    0.71807    0.25809    1.000
    N5482    N        0.89827    0.72724    0.42708    1.000
    N5483    N        0.78561    0.75125    0.59069    1.000
    N5484    N        0.81501    0.73421    0.53645    1.000
    N5485    N        0.85261    0.74178    0.60113    1.000
    Si5486   Si       0.79268    0.76949    0.54988    1.000
    N5487    N        0.98012    0.76188    0.57710    1.000
    N5488    N        0.91740    0.74833    0.60542    1.000
    Si5489   Si       0.93957    0.75286    0.56748    1.000
    Si5490   Si       0.88736    0.72037    0.61649    1.000
    N5491    N        0.94188    0.71640    0.54370    1.000
    Si5492   Si       0.81678    0.75951    0.61919    1.000
    Si5493   Si       0.76797    0.75149    0.72616    1.000
    Si5494   Si       0.83759    0.75264    0.69502    1.000
    N5495    N        0.81788    0.73780    0.65821    1.000
    N5496    N        0.75983    0.72354    0.69448    1.000
    N5497    N        0.85821    0.72244    0.71811    1.000
    N5498    N        0.80653    0.76827    0.71897    1.000
    N5499    N        0.97473    0.76334    0.64530    1.000
    N5500    N        0.97136    0.75768    0.71720    1.000
    Si5501   Si       0.92987    0.75469    0.64771    1.000
    N5502    N        0.89995    0.72472    0.65981    1.000
    N5503    N        0.89886    0.74880    0.49475    1.000
    Si5504   Si       0.77023    0.71056    0.59355    1.000
    Si5505   Si       0.83663    0.71569    0.56827    1.000
    Si5506   Si       0.90495    0.71147    0.51695    1.000
    N5507    N        0.75474    0.71474    0.63401    1.000
    Si5508   Si       0.83520    0.75126    0.82214    1.000
    N5509    N        0.75679    0.73386    0.76440    1.000
    N5510    N        0.79685    0.72856    0.82612    1.000
    N5511    N        0.84972    0.74363    0.86296    1.000
    N5512    N        0.85428    0.74099    0.78419    1.000
    Si5513   Si       0.77898    0.72469    0.86548    1.000
    N5514    N        0.91402    0.74267    0.84326    1.000
    N5515    N        0.92089    0.74006    0.77119    1.000
    N5516    N        0.98302    0.72526    0.81114    1.000
    Si5517   Si       0.88949    0.72897    0.87831    1.000
    Si5518   Si       0.95178    0.71971    0.84031    1.000
    Si5519   Si       0.94763    0.77022    0.75102    1.000
    N5520    N        0.75611    0.76283    0.87589    1.000
    N5521    N        0.79111    0.74716    0.98908    1.000
    N5522    N        0.75002    0.74723    0.94221    1.000
    N5523    N        0.83474    0.75280    0.94616    1.000
    Si5524   Si       0.83203    0.75664    0.90280    1.000
    Si5525   Si       0.79220    0.73193    0.94652    1.000
    N5526    N        0.80364    0.72388    0.90181    1.000
    N5527    N        0.88753    0.75072    0.91515    1.000
    N5528    N        0.95782    0.74894    0.97504    1.000
    Si5529   Si       0.87213    0.73151    0.95218    1.000
    N5530    N        0.96887    0.72667    0.87964    1.000
    Si5531   Si       0.97165    0.76942    0.88438    1.000
    N5532    N        0.89364    0.73586    0.99173    1.000
    N5533    N        0.78748    0.79170    0.04219    1.000
    Si5534   Si       0.82653    0.80947    0.03880    1.000
    Si5535   Si       0.80996    0.80333    0.10518    1.000
    N5536    N        0.84331    0.81350    0.07772    1.000
    Si5537   Si       0.75949    0.82619    0.05210    1.000
    N5538    N        0.84701    0.77894    0.01609    1.000
    Si5539   Si       0.93735    0.78296    0.24331    1.000
    N5540    N        0.97505    0.80943    0.07611    1.000
    Si5541   Si       0.93394    0.81428    0.05874    1.000
    N5542    N        0.91024    0.81949    0.09364    1.000
    Si5543   Si       0.97698    0.77805    0.10569    1.000
    Si5544   Si       0.87072    0.82407    0.10986    1.000
    N5545    N        0.92666    0.77658    0.04009    1.000
    Si5546   Si       0.84209    0.81934    0.17827    1.000
    N5547    N        0.84150    0.80640    0.13668    1.000
    N5548    N        0.80479    0.81017    0.19892    1.000
    N5549    N        0.75043    0.82728    0.23027    1.000
    Si5550   Si       0.93183    0.82850    0.12985    1.000
    N5551    N        0.93788    0.79947    0.20358    1.000
    N5552    N        0.87013    0.81545    0.21413    1.000
    N5553    N        0.95394    0.79213    0.13940    1.000
    Si5554   Si       0.90765    0.82963    0.19834    1.000
    N5555    N        0.77962    0.83154    0.09364    1.000
    N5556    N        0.75330    0.82781    0.00299    1.000
    N5557    N        0.76728    0.76246    0.16473    1.000
    N5558    N        0.80838    0.79507    0.31791    1.000
    Si5559   Si       0.82924    0.78174    0.35360    1.000
    Si5560   Si       0.85188    0.82218    0.25330    1.000
    N5561    N        0.84593    0.78132    0.26288    1.000
    N5562    N        0.94870    0.77998    0.44576    1.000
    N5563    N        0.95635    0.79096    0.32953    1.000
    N5564    N        0.94048    0.81781    0.26890    1.000
    Si5565   Si       0.97022    0.82035    0.29882    1.000
    Si5566   Si       0.94712    0.82345    0.35681    1.000
    Si5567   Si       0.83428    0.79792    0.48664    1.000
    Si5568   Si       0.82810    0.78867    0.41548    1.000
    N5569    N        0.79467    0.81277    0.43031    1.000
    N5570    N        0.85006    0.80804    0.38238    1.000
    N5571    N        0.85305    0.78162    0.44989    1.000
    N5572    N        0.74993    0.82378    0.48056    1.000
    N5573    N        0.74084    0.79511    0.38356    1.000
    Si5574   Si       0.76404    0.82625    0.40099    1.000
    N5575    N        0.79814    0.77434    0.49210    1.000
    Si5576   Si       0.98008    0.77910    0.41662    1.000
    Si5577   Si       0.93614    0.82139    0.45041    1.000
    N5578    N        0.92291    0.82105    0.49178    1.000
    N5579    N        0.97119    0.81427    0.39287    1.000
    N5580    N        0.81478    0.80552    0.56213    1.000
    N5581    N        0.75277    0.78101    0.53945    1.000
    Si5582   Si       0.85239    0.82467    0.55190    1.000
    Si5583   Si       0.80162    0.82765    0.59759    1.000
    N5584    N        0.75975    0.82892    0.59531    1.000
    Si5585   Si       0.75492    0.78266    0.49564    1.000
    N5586    N        0.86337    0.79756    0.51862    1.000
    N5587    N        0.88177    0.81853    0.58278    1.000
    N5588    N        0.92954    0.78780    0.54482    1.000
    Si5589   Si       0.90322    0.78806    0.51017    1.000
    Si5590   Si       0.95892    0.81711    0.51826    1.000
    Si5591   Si       0.92456    0.81977    0.57530    1.000
    N5592    N        0.94969    0.82489    0.60994    1.000
    Si5593   Si       0.96144    0.80556    0.64669    1.000
    N5594    N        0.81223    0.80116    0.63050    1.000
    Si5595   Si       0.81584    0.81078    0.73317    1.000
    Si5596   Si       0.83113    0.81725    0.66703    1.000
    N5597    N        0.85962    0.78827    0.68466    1.000
    N5598    N        0.74266    0.78672    0.72442    1.000
    Si5599   Si       0.89580    0.80629    0.69793    1.000
    N5600    N        0.92173    0.79408    0.66521    1.000
    N5601    N        0.91084    0.78672    0.73290    1.000
    N5602    N        0.98893    0.78663    0.51239    1.000
    N5603    N        0.83205    0.79518    0.81852    1.000
    N5604    N        0.85373    0.80380    0.75551    1.000
    Si5605   Si       0.74617    0.82065    0.75177    1.000
    N5606    N        0.78615    0.82314    0.76493    1.000
    Si5607   Si       0.80204    0.82691    0.80614    1.000
    N5608    N        0.77126    0.82551    0.83701    1.000
    Si5609   Si       0.86295    0.82050    0.79532    1.000
    N5610    N        0.89686    0.79504    0.80305    1.000
    N5611    N        0.96014    0.80185    0.77989    1.000
    Si5612   Si       0.92143    0.78515    0.83604    1.000
    N5613    N        0.96395    0.78416    0.84425    1.000
    Si5614   Si       0.77556    0.80300    0.87359    1.000
    N5615    N        0.81338    0.79487    0.89492    1.000
    Si5616   Si       0.83260    0.82264    0.92254    1.000
    N5617    N        0.81388    0.81501    0.96177    1.000
    Si5618   Si       0.82204    0.77588    0.98062    1.000
    N5619    N        0.75613    0.83094    0.90162    1.000
    N5620    N        0.90434    0.80643    0.87030    1.000
    Si5621   Si       0.96512    0.78598    0.95447    1.000
    N5622    N        0.93366    0.80559    0.97770    1.000
    N5623    N        0.94711    0.78288    0.91587    1.000
    N5624    N        0.87599    0.82306    0.92622    1.000
    Si5625   Si       0.90207    0.79234    0.91083    1.000
    Si5626   Si       0.88569    0.76878    0.76691    1.000
    N5627    N        0.81503    0.84850    0.02339    1.000
    Si5628   Si       0.77093    0.87531    0.09081    1.000
    N5629    N        0.74946    0.86809    0.05372    1.000
    Si5630   Si       0.87606    0.87149    0.15172    1.000
    Si5631   Si       0.82447    0.88615    0.04272    1.000
    N5632    N        0.86989    0.86782    0.10959    1.000
    N5633    N        0.93578    0.85016    0.03396    1.000
    Si5634   Si       0.94849    0.88837    0.04627    1.000
    N5635    N        0.89839    0.83563    0.15704    1.000
    N5636    N        0.76264    0.87259    0.16910    1.000
    N5637    N        0.83821    0.86134    0.17254    1.000
    Si5638   Si       0.79285    0.84121    0.22785    1.000
    N5639    N        0.79709    0.88377    0.22055    1.000
    Si5640   Si       0.80322    0.88728    0.17805    1.000
    Si5641   Si       0.98327    0.86844    0.16542    1.000
    N5642    N        0.95454    0.86455    0.13093    1.000
    N5643    N        0.91401    0.86626    0.22162    1.000
    N5644    N        0.82388    0.86054    0.32497    1.000
    Si5645   Si       0.84818    0.88027    0.29391    1.000
    Si5646   Si       0.75560    0.88475    0.36609    1.000
    Si5647   Si       0.82257    0.87560    0.36733    1.000
    N5648    N        0.81301    0.83492    0.26345    1.000
    N5649    N        0.75389    0.83502    0.29425    1.000
    N5650    N        0.91143    0.84439    0.35019    1.000
    N5651    N        0.87536    0.85074    0.27785    1.000
    Si5652   Si       0.91740    0.85610    0.26538    1.000
    N5653    N        0.97331    0.84993    0.33144    1.000
    Si5654   Si       0.90910    0.88498    0.33184    1.000
    N5655    N        0.93249    0.88537    0.29252    1.000
    N5656    N        0.78565    0.85946    0.38066    1.000
    Si5657   Si       0.78669    0.84091    0.46271    1.000
    N5658    N        0.82043    0.83864    0.48811    1.000
    N5659    N        0.78595    0.88560    0.45147    1.000
    N5660    N        0.86175    0.87457    0.38526    1.000
    N5661    N        0.73679    0.84971    0.42590    1.000
    Si5662   Si       0.79656    0.83376    0.30418    1.000
    Si5663   Si       0.88289    0.83816    0.38240    1.000
    N5664    N        0.97574    0.88350    0.39165    1.000
    N5665    N        0.88110    0.87383    0.47392    1.000
    Si5666   Si       0.97843    0.88230    0.48005    1.000
    N5667    N        0.96925    0.84903    0.45020    1.000
    N5668    N        0.90808    0.83352    0.41865    1.000
    N5669    N        0.83186    0.85922    0.58781    1.000
    Si5670   Si       0.84474    0.87135    0.49763    1.000
    N5671    N        0.89286    0.84984    0.70970    1.000
    N5672    N        0.86913    0.86251    0.53236    1.000
    Si5673   Si       0.86697    0.84802    0.61067    1.000
    Si5674   Si       0.97449    0.87284    0.54884    1.000
    N5675    N        0.93711    0.85053    0.54635    1.000
    Si5676   Si       0.90860    0.85993    0.51028    1.000
    N5677    N        0.88720    0.88440    0.60158    1.000
    Si5678   Si       0.74289    0.85030    0.62938    1.000
    N5679    N        0.77613    0.86425    0.65196    1.000
    Si5680   Si       0.79642    0.87544    0.68797    1.000
    N5681    N        0.81305    0.83797    0.70233    1.000
    Si5682   Si       0.87200    0.87515    0.68052    1.000
    N5683    N        0.86202    0.84467    0.65193    1.000
    N5684    N        0.98475    0.83795    0.66005    1.000
    Si5685   Si       0.97738    0.85889    0.61975    1.000
    N5686    N        0.98820    0.85205    0.51361    1.000
    N5687    N        0.83521    0.85483    0.80161    1.000
    N5688    N        0.73599    0.88017    0.79840    1.000
    Si5689   Si       0.86857    0.87934    0.81019    1.000
    N5690    N        0.89801    0.85721    0.78374    1.000
    N5691    N        0.94338    0.85033    0.83478    1.000
    N5692    N        0.87577    0.87033    0.85339    1.000
    Si5693   Si       0.91310    0.84799    0.86592    1.000
    N5694    N        0.95232    0.86564    0.75324    1.000
    Si5695   Si       0.98273    0.85698    0.84716    1.000
    Si5696   Si       0.90995    0.87180    0.74354    1.000
    Si5697   Si       0.94087    0.84229    0.78731    1.000
    Si5698   Si       0.78901    0.84057    0.98614    1.000
    Si5699   Si       0.77784    0.86551    0.91770    1.000
    N5700    N        0.77988    0.87426    0.96018    1.000
    N5701    N        0.81975    0.86090    0.90690    1.000
    Si5702   Si       0.84740    0.88359    0.88513    1.000
    N5703    N        0.90630    0.86734    0.97296    1.000
    N5704    N        0.98116    0.85469    0.98716    1.000
    Si5705   Si       0.89391    0.86325    0.93304    1.000
    Si5706   Si       0.93909    0.84671    0.99076    1.000
    N5707    N        0.92504    0.87073    0.90155    1.000
    N5708    N        0.81902    0.91675    0.01302    1.000
    Si5709   Si       0.81829    0.92363    0.11145    1.000
    N5710    N        0.75024    0.90656    0.11052    1.000
    N5711    N        0.75026    0.91672    0.00606    1.000
    Si5712   Si       0.85810    0.93383    0.01783    1.000
    N5713    N        0.81058    0.89288    0.08321    1.000
    N5714    N        0.86052    0.93516    0.10512    1.000
    Si5715   Si       0.97568    0.89256    0.10431    1.000
    N5716    N        0.86738    0.89844    0.04593    1.000
    N5717    N        0.92628    0.90682    0.08150    1.000
    N5718    N        0.96314    0.91432    0.01362    1.000
    Si5719   Si       0.88288    0.90160    0.08412    1.000
    N5720    N        0.97916    0.93483    0.10227    1.000
    N5721    N        0.81211    0.92286    0.15447    1.000
    Si5722   Si       0.80013    0.91967    0.24453    1.000
    N5723    N        0.82774    0.94684    0.22296    1.000
    Si5724   Si       0.96749    0.92277    0.22337    1.000
    N5725    N        0.89541    0.90837    0.16253    1.000
    Si5726   Si       0.91896    0.90185    0.19754    1.000
    N5727    N        0.96061    0.89465    0.18974    1.000
    Si5728   Si       0.88395    0.94611    0.14151    1.000
    N5729    N        0.92480    0.93541    0.22117    1.000
    Si5730   Si       0.73594    0.90319    0.15190    1.000
    Si5731   Si       0.94101    0.94749    0.09035    1.000
    N5732    N        0.81601    0.91054    0.28275    1.000
    Si5733   Si       0.79484    0.92188    0.31987    1.000
    N5734    N        0.81022    0.91651    0.36069    1.000
    N5735    N        0.75863    0.89865    0.32519    1.000
    N5736    N        0.75959    0.93618    0.24895    1.000
    N5737    N        0.87395    0.90537    0.31779    1.000
    N5738    N        0.97515    0.92271    0.33002    1.000
    Si5739   Si       0.96608    0.91283    0.28832    1.000
    N5740    N        0.91584    0.91315    0.36321    1.000
    Si5741   Si       0.94584    0.94518    0.35549    1.000
    Si5742   Si       0.74670    0.89172    0.43301    1.000
    Si5743   Si       0.79308    0.92165    0.47714    1.000
    N5744    N        0.85815    0.94328    0.40691    1.000
    N5745    N        0.93645    0.89108    0.49537    1.000
    N5746    N        0.87878    0.94177    0.48001    1.000
    Si5747   Si       0.88688    0.91093    0.39709    1.000
    N5748    N        0.91751    0.91383    0.42827    1.000
    N5749    N        0.98063    0.91978    0.45235    1.000
    Si5750   Si       0.95973    0.91488    0.41514    1.000
    Si5751   Si       0.90494    0.90825    0.46802    1.000
    N5752    N        0.82664    0.90898    0.50486    1.000
    N5753    N        0.76484    0.93612    0.50697    1.000
    N5754    N        0.76970    0.94281    0.57535    1.000
    N5755    N        0.83458    0.93827    0.61208    1.000
    Si5756   Si       0.85362    0.94116    0.51621    1.000
    N5757    N        0.87069    0.93005    0.55394    1.000
    N5758    N        0.98298    0.91470    0.54298    1.000
    Si5759   Si       0.75202    0.93669    0.67988    1.000
    Si5760   Si       0.82809    0.93095    0.65399    1.000
    N5761    N        0.77391    0.90728    0.70830    1.000
    Si5762   Si       0.79639    0.93010    0.73701    1.000
    N5763    N        0.78449    0.93868    0.64947    1.000
    N5764    N        0.83339    0.89562    0.67708    1.000
    Si5765   Si       0.91141    0.90682    0.62769    1.000
    N5766    N        0.89954    0.90519    0.66827    1.000
    Si5767   Si       0.97626    0.89595    0.73432    1.000
    Si5768   Si       0.91863    0.92998    0.69939    1.000
    N5769    N        0.95186    0.89433    0.62808    1.000
    N5770    N        0.95924    0.91199    0.69589    1.000
    N5771    N        0.90288    0.91332    0.73571    1.000
    Si5772   Si       0.97626    0.91726    0.65468    1.000
    Si5773   Si       0.85860    0.88993    0.56886    1.000
    N5774    N        0.76927    0.92726    0.77020    1.000
    N5775    N        0.76922    0.93732    0.84011    1.000
    Si5776   Si       0.74324    0.89192    0.75441    1.000
    N5777    N        0.83255    0.91263    0.74624    1.000
    Si5778   Si       0.86902    0.92923    0.75774    1.000
    N5779    N        0.87145    0.92146    0.79968    1.000
    Si5780   Si       0.96915    0.92942    0.84204    1.000
    N5781    N        0.93681    0.92985    0.81448    1.000
    N5782    N        0.88554    0.93982    0.86445    1.000
    N5783    N        0.98015    0.93301    0.75651    1.000
    N5784    N        0.82308    0.91745    0.87546    1.000
    N5785    N        0.75588    0.89812    0.89669    1.000
    Si5786   Si       0.78744    0.91415    0.98392    1.000
    Si5787   Si       0.78198    0.92674    0.88039    1.000
    N5788    N        0.79958    0.93797    0.95201    1.000
    Si5789   Si       0.73715    0.91714    0.82211    1.000
    N5790    N        0.95216    0.92066    0.88046    1.000
    N5791    N        0.87319    0.89806    0.91652    1.000
    Si5792   Si       0.86985    0.93735    0.93844    1.000
    Si5793   Si       0.90996    0.91614    0.89350    1.000
    N5794    N        0.91071    0.94596    0.92723    1.000
    N5795    N        0.97091    0.90941    0.94455    1.000
    Si5796   Si       0.89683    0.94722    0.82315    1.000
    Si5797   Si       0.96561    0.88658    0.90568    1.000
    Si5798   Si       0.84528    0.97408    0.08371    1.000
    Si5799   Si       0.76584    0.97175    0.08749    1.000
    N5800    N        0.75295    0.99430    0.00887    1.000
    N5801    N        0.80582    0.96056    0.08907    1.000
    N5802    N        0.86624    0.96988    0.04664    1.000
    N5803    N        0.93822    0.96716    0.05141    1.000
    Si5804   Si       0.90387    0.99467    0.04961    1.000
    Si5805   Si       0.96322    0.95636    0.01612    1.000
    N5806    N        0.73925    0.95293    0.06127    1.000
    N5807    N        0.78878    0.98513    0.18157    1.000
    N5808    N        0.85944    0.97187    0.16598    1.000
    Si5809   Si       0.74789    0.97391    0.16820    1.000
    N5810    N        0.74782    0.97350    0.12533    1.000
    Si5811   Si       0.82113    0.95647    0.18048    1.000
    N5812    N        0.88403    0.99773    0.22361    1.000
    N5813    N        0.91765    0.96418    0.12195    1.000
    Si5814   Si       0.92189    0.00600    0.12309    1.000
    Si5815   Si       0.85558    0.97344    0.24527    1.000
    N5816    N        0.78590    0.96290    0.30802    1.000
    N5817    N        0.85144    0.96836    0.34134    1.000
    Si5818   Si       0.75135    0.96567    0.28178    1.000
    Si5819   Si       0.79843    0.00337    0.29519    1.000
    N5820    N        0.83296    0.00228    0.26947    1.000
    Si5821   Si       0.88172    0.94961    0.31817    1.000
    N5822    N        0.86540    0.00070    0.44925    1.000
    N5823    N        0.91944    0.97093    0.33219    1.000
    Si5824   Si       0.97288    0.99241    0.27942    1.000
    N5825    N        0.88368    0.95445    0.27439    1.000
    Si5826   Si       0.91992    0.96424    0.25367    1.000
    N5827    N        0.95887    0.95213    0.27020    1.000
    N5828    N        0.93230    0.00752    0.27392    1.000
    N5829    N        0.74748    0.98400    0.43556    1.000
    Si5830   Si       0.78942    0.98487    0.43082    1.000
    N5831    N        0.81081    0.95508    0.45527    1.000
    Si5832   Si       0.85450    0.95905    0.44764    1.000
    N5833    N        0.80081    0.98023    0.38723    1.000
    Si5834   Si       0.83076    0.95155    0.37497    1.000
    N5835    N        0.93624    0.99134    0.46736    1.000
    N5836    N        0.97157    0.94978    0.39028    1.000
    Si5837   Si       0.97077    0.98832    0.49042    1.000
    N5838    N        0.73930    0.99004    0.36076    1.000
    Si5839   Si       0.89493    0.00818    0.48024    1.000
    N5840    N        0.82403    0.96978    0.53158    1.000
    Si5841   Si       0.78036    0.96257    0.53799    1.000
    N5842    N        0.75999    0.00087    0.53291    1.000
    Si5843   Si       0.79445    0.95490    0.61003    1.000
    N5844    N        0.79716    0.99542    0.61822    1.000
    Si5845   Si       0.84490    0.00329    0.54699    1.000
    N5846    N        0.86842    0.99334    0.58231    1.000
    Si5847   Si       0.86918    0.95052    0.59201    1.000
    N5848    N        0.97682    0.98670    0.53367    1.000
    N5849    N        0.80278    0.97200    0.72071    1.000
    Si5850   Si       0.76687    0.99745    0.71627    1.000
    N5851    N        0.85274    0.96167    0.67532    1.000
    Si5852   Si       0.84393    0.98361    0.71161    1.000
    N5853    N        0.74225    0.97898    0.68469    1.000
    N5854    N        0.92315    0.96966    0.68268    1.000
    Si5855   Si       0.96286    0.98882    0.68032    1.000
    N5856    N        0.90127    0.94932    0.62232    1.000
    Si5857   Si       0.88965    0.97650    0.65575    1.000
    N5858    N        0.98316    0.95882    0.64698    1.000
    N5859    N        0.87400    0.01075    0.51637    1.000
    N5860    N        0.82521    0.97653    0.84108    1.000
    Si5861   Si       0.78000    0.97954    0.85173    1.000
    N5862    N        0.74551    0.99277    0.75330    1.000
    N5863    N        0.89505    0.99028    0.81607    1.000
    N5864    N        0.93497    0.98173    0.76469    1.000
    Si5865   Si       0.89474    0.99631    0.77044    1.000
    Si5866   Si       0.95949    0.95436    0.78694    1.000
    N5867    N        0.86739    0.97204    0.74759    1.000
    N5868    N        0.87273    0.95212    0.98130    1.000
    Si5869   Si       0.90456    0.98220    0.97973    1.000
    Si5870   Si       0.84493    0.95530    0.87226    1.000
    Si5871   Si       0.80808    0.97319    0.93129    1.000
    N5872    N        0.78447    0.96921    0.89546    1.000
    N5873    N        0.85155    0.96838    0.91473    1.000
    Si5874   Si       0.74738    0.99173    0.90433    1.000
    Si5875   Si       0.75317    0.00590    0.96767    1.000
    N5876    N        0.79621    0.00805    0.95629    1.000
    N5877    N        0.97240    0.98507    0.91456    1.000
    Si5878   Si       0.95391    0.95128    0.94004    1.000
    N5879    N        0.94483    0.96675    0.97905    1.000
