# CIF file generated by openbabel 3.1.1, see https://openbabel.org
data_I
_chemical_name_common '3.01-56.aims'
_cell_length_a 39.8658
_cell_length_b 39.8658
_cell_length_c 39.8658
_cell_angle_alpha 90
_cell_angle_beta 90
_cell_angle_gamma 90
loop_
    _atom_site_label
    _atom_site_type_symbol
    _atom_site_fract_x
    _atom_site_fract_y
    _atom_site_fract_z
    _atom_site_occupancy
    Si0      Si       0.00515    0.07356    0.10437    1.000
    N1       N        0.01599    0.11423    0.11743    1.000
    N2       N        0.99234    0.04896    0.07294    1.000
    N3       N        0.02632    0.15062    0.17721    1.000
    Si4      Si       0.99395    0.25625    0.14012    1.000
    Si5      Si       0.99787    0.14782    0.09183    1.000
    Si6      Si       0.02048    0.19414    0.03129    1.000
    N7       N        0.02564    0.16956    0.06782    1.000
    N8       N        0.01154    0.23675    0.04309    1.000
    N9       N        0.99360    0.16440    0.01020    1.000
    Si10     Si       0.01111    0.07564    0.22594    1.000
    Si11     Si       0.02806    0.05121    0.15793    1.000
    N12      N        0.03192    0.08202    0.18892    1.000
    N13      N        0.99454    0.11356    0.24064    1.000
    N14      N        0.02902    0.00986    0.17267    1.000
    N15      N        0.01800    0.22987    0.16247    1.000
    Si16     Si       0.99527    0.13477    0.15254    1.000
    N17      N        0.00022    0.20527    0.22480    1.000
    Si18     Si       0.02615    0.19401    0.18856    1.000
    Si19     Si       0.01543    0.10330    0.27862    1.000
    N20      N        0.03877    0.07125    0.25810    1.000
    Si21     Si       0.00172    0.09928    0.35289    1.000
    N22      N        0.02797    0.06872    0.36897    1.000
    N23      N        0.99197    0.08439    0.30974    1.000
    N24      N        0.99942    0.00902    0.29354    1.000
    N25      N        0.03527    0.13978    0.28826    1.000
    N26      N        0.00720    0.14416    0.34708    1.000
    N27      N        0.00760    0.20318    0.29535    1.000
    Si28     Si       0.02539    0.17288    0.31942    1.000
    Si29     Si       0.02679    0.21848    0.25846    1.000
    N30      N        0.04017    0.25929    0.26109    1.000
    Si31     Si       0.00585    0.03104    0.37887    1.000
    N32      N        0.00319    0.02964    0.42321    1.000
    N33      N        0.00065    0.09830    0.43976    1.000
    Si34     Si       0.03998    0.11573    0.44014    1.000
    Si35     Si       0.04224    0.01384    0.43788    1.000
    N36      N        0.99405    0.18891    0.46799    1.000
    N37      N        0.01064    0.25461    0.47087    1.000
    Si38     Si       0.02298    0.21509    0.48822    1.000
    Si39     Si       0.00763    0.17650    0.42948    1.000
    N40      N        0.02313    0.21001    0.40667    1.000
    N41      N        0.04643    0.15983    0.44009    1.000
    Si42     Si       0.98871    0.23019    0.38660    1.000
    Si43     Si       0.02613    0.04382    0.55960    1.000
    N44      N        0.02773    0.08607    0.54122    1.000
    Si45     Si       0.99567    0.11095    0.55343    1.000
    N46      N        0.01381    0.16949    0.69799    1.000
    N47      N        0.00468    0.15583    0.55449    1.000
    N48      N        0.02651    0.21009    0.53059    1.000
    N49      N        0.00375    0.21167    0.59344    1.000
    Si50     Si       0.03859    0.22499    0.57102    1.000
    Si51     Si       0.04382    0.17022    0.54442    1.000
    Si52     Si       0.01852    0.06981    0.67072    1.000
    N53      N        0.02152    0.03849    0.70150    1.000
    N54      N        0.00702    0.10666    0.69052    1.000
    Si55     Si       0.03837    0.12452    0.71530    1.000
    N56      N        0.99075    0.22232    0.66577    1.000
    Si57     Si       0.00745    0.19394    0.63354    1.000
    N58      N        0.99877    0.23848    0.73717    1.000
    N59      N        0.98774    0.05860    0.64193    1.000
    N60      N        0.03032    0.02123    0.76682    1.000
    N61      N        0.01212    0.10323    0.78977    1.000
    N62      N        0.00804    0.05071    0.83391    1.000
    Si63     Si       0.99967    0.03486    0.79487    1.000
    Si64     Si       0.04568    0.13139    0.79110    1.000
    Si65     Si       0.01735    0.19814    0.90765    1.000
    Si66     Si       0.01992    0.19981    0.80297    1.000
    N67      N        0.02645    0.22768    0.83503    1.000
    N68      N        0.04090    0.16490    0.81892    1.000
    Si69     Si       0.04386    0.25325    0.86328    1.000
    N70      N        0.04808    0.21651    0.77130    1.000
    N71      N        0.04707    0.14838    0.75061    1.000
    N72      N        0.00010    0.10080    0.89061    1.000
    N73      N        0.03166    0.04266    0.96034    1.000
    Si74     Si       0.04131    0.08920    0.89900    1.000
    N75      N        0.02058    0.19040    0.95083    1.000
    N76      N        0.01796    0.24209    0.89642    1.000
    Si77     Si       0.01159    0.05736    0.99571    1.000
    Si78     Si       0.03866    0.25563    0.74763    1.000
    Si79     Si       0.01819    0.30550    0.09325    1.000
    N80      N        0.01593    0.34689    0.10232    1.000
    Si81     Si       0.04684    0.26710    0.03334    1.000
    N82      N        0.04745    0.30311    0.06116    1.000
    N83      N        0.99859    0.45836    0.10304    1.000
    Si84     Si       0.03009    0.43311    0.08735    1.000
    N85      N        0.00723    0.40076    0.06366    1.000
    Si86     Si       0.00349    0.49334    0.00719    1.000
    Si87     Si       0.99872    0.41112    0.01961    1.000
    Si88     Si       0.99245    0.49779    0.08166    1.000
    Si89     Si       0.03433    0.31711    0.16385    1.000
    Si90     Si       0.00715    0.37551    0.20218    1.000
    N91      N        0.02743    0.28573    0.13034    1.000
    N92      N        0.99976    0.33847    0.18020    1.000
    N93      N        0.04434    0.37568    0.22639    1.000
    N94      N        0.05118    0.28655    0.18983    1.000
    N95      N        0.04124    0.47502    0.15647    1.000
    N96      N        0.00789    0.41447    0.18292    1.000
    N97      N        0.04435    0.40938    0.12240    1.000
    Si98     Si       0.04003    0.43097    0.16009    1.000
    Si99     Si       0.00402    0.48522    0.14207    1.000
    Si100    Si       0.02110    0.30312    0.35677    1.000
    Si101    Si       0.02165    0.28679    0.29038    1.000
    N102     N        0.01255    0.32386    0.26816    1.000
    N103     N        0.02374    0.37890    0.33919    1.000
    Si104    Si       0.02476    0.48104    0.42179    1.000
    Si105    Si       0.01619    0.45074    0.49367    1.000
    Si106    Si       0.99186    0.47829    0.36080    1.000
    Si107    Si       0.00814    0.44609    0.25842    1.000
    N108     N        0.00375    0.48381    0.28018    1.000
    Si109    Si       0.03657    0.40456    0.30627    1.000
    N110     N        0.00431    0.40631    0.27933    1.000
    Si111    Si       0.03687    0.48530    0.30786    1.000
    N112     N        0.02082    0.50720    0.34477    1.000
    N113     N        0.01833    0.45485    0.38703    1.000
    N114     N        0.99731    0.26952    0.37316    1.000
    Si115    Si       0.00811    0.34474    0.41501    1.000
    N116     N        0.03825    0.32811    0.38631    1.000
    N117     N        0.01877    0.32486    0.45496    1.000
    Si118    Si       0.03614    0.28921    0.47225    1.000
    Si119    Si       0.00806    0.35117    0.48849    1.000
    N120     N        0.04224    0.37839    0.48252    1.000
    N121     N        0.02749    0.38474    0.41423    1.000
    N122     N        0.01818    0.44620    0.45150    1.000
    Si123    Si       0.00713    0.42231    0.41650    1.000
    Si124    Si       0.03153    0.30100    0.54408    1.000
    N125     N        0.00198    0.32670    0.52499    1.000
    N126     N        0.01328    0.27206    0.56871    1.000
    Si127    Si       0.04501    0.28440    0.59944    1.000
    N128     N        0.04158    0.39046    0.55308    1.000
    Si129    Si       0.00340    0.40968    0.55986    1.000
    N130     N        0.00163    0.44110    0.58731    1.000
    N131     N        0.02430    0.50653    0.60635    1.000
    Si132    Si       0.99496    0.47477    0.61246    1.000
    N133     N        0.99421    0.38207    0.74563    1.000
    Si134    Si       0.01559    0.49526    0.73309    1.000
    Si135    Si       0.01151    0.30041    0.67401    1.000
    N136     N        0.01245    0.34110    0.68512    1.000
    N137     N        0.03565    0.28080    0.70426    1.000
    Si138    Si       0.01981    0.37531    0.65838    1.000
    N139     N        0.02286    0.29156    0.63543    1.000
    N140     N        0.00527    0.45625    0.72099    1.000
    Si141    Si       0.02658    0.45126    0.68236    1.000
    N142     N        0.03768    0.40928    0.67883    1.000
    N143     N        0.99609    0.45845    0.65247    1.000
    N144     N        0.00442    0.49266    0.50217    1.000
    N145     N        0.03236    0.28371    0.78019    1.000
    N146     N        0.03567    0.29594    0.84890    1.000
    Si147    Si       0.99846    0.32188    0.85612    1.000
    Si148    Si       0.01854    0.38428    0.78298    1.000
    Si149    Si       0.99332    0.29816    0.78509    1.000
    N150     N        0.01391    0.47947    0.88341    1.000
    N151     N        0.03595    0.47626    0.81601    1.000
    N152     N        0.99379    0.50243    0.76974    1.000
    N153     N        0.04025    0.28186    0.99335    1.000
    N154     N        0.99321    0.29076    0.93990    1.000
    N155     N        0.03645    0.34786    0.95727    1.000
    Si156    Si       0.03253    0.30155    0.95591    1.000
    Si157    Si       0.01914    0.36832    0.92259    1.000
    N158     N        0.02231    0.34211    0.88908    1.000
    Si159    Si       0.01701    0.50090    0.92763    1.000
    N160     N        0.03349    0.40656    0.99260    1.000
    Si161    Si       0.04463    0.44441    0.96853    1.000
    Si162    Si       0.00512    0.43792    0.90184    1.000
    N163     N        0.03487    0.40706    0.90808    1.000
    N164     N        0.01276    0.45787    0.94165    1.000
    N165     N        0.01751    0.58078    0.02291    1.000
    Si166    Si       0.03772    0.54796    0.04279    1.000
    N167     N        0.99857    0.62732    0.07657    1.000
    Si168    Si       0.01865    0.62341    0.11646    1.000
    N169     N        0.01474    0.51044    0.04556    1.000
    N170     N        0.99885    0.52153    0.12131    1.000
    Si171    Si       0.00624    0.73295    0.02092    1.000
    N172     N        0.01118    0.68589    0.09232    1.000
    N173     N        0.02785    0.74736    0.05624    1.000
    N174     N        0.99950    0.69104    0.02610    1.000
    N175     N        0.03040    0.58267    0.12694    1.000
    Si176    Si       0.02321    0.55537    0.21555    1.000
    Si177    Si       0.99612    0.55990    0.14171    1.000
    N178     N        0.02875    0.51475    0.22855    1.000
    N179     N        0.99298    0.55244    0.18516    1.000
    Si180    Si       0.00621    0.66880    0.18259    1.000
    N181     N        0.04327    0.67155    0.20734    1.000
    N182     N        0.99684    0.64228    0.14909    1.000
    Si183    Si       0.03484    0.73981    0.15587    1.000
    N184     N        0.00031    0.70934    0.16423    1.000
    Si185    Si       0.02251    0.65583    0.24209    1.000
    Si186    Si       0.01779    0.59318    0.28268    1.000
    Si187    Si       0.01797    0.55371    0.34573    1.000
    N188     N        0.01170    0.59596    0.36073    1.000
    N189     N        0.04082    0.56493    0.30798    1.000
    N190     N        0.99620    0.62222    0.30364    1.000
    N191     N        0.00159    0.56364    0.25423    1.000
    Si192    Si       0.99604    0.51869    0.25650    1.000
    N193     N        0.04298    0.61870    0.25666    1.000
    N194     N        0.99076    0.66899    0.35260    1.000
    N195     N        0.02214    0.75307    0.28134    1.000
    Si196    Si       0.01327    0.66218    0.31335    1.000
    N197     N        0.01338    0.68177    0.27462    1.000
    Si198    Si       0.99476    0.72182    0.27062    1.000
    N199     N        0.04993    0.54386    0.46450    1.000
    N200     N        0.01610    0.58631    0.42892    1.000
    Si201    Si       0.03020    0.54403    0.42479    1.000
    Si202    Si       0.04082    0.59929    0.39471    1.000
    N203     N        0.99676    0.51640    0.42200    1.000
    N204     N        0.04820    0.55283    0.38552    1.000
    Si205    Si       0.01411    0.72956    0.44124    1.000
    N206     N        0.99834    0.71361    0.47986    1.000
    Si207    Si       0.02139    0.68028    0.38351    1.000
    N208     N        0.99794    0.70335    0.41143    1.000
    N209     N        0.04124    0.64288    0.39706    1.000
    N210     N        0.99626    0.63603    0.49351    1.000
    Si211    Si       0.00891    0.54754    0.55347    1.000
    N212     N        0.01757    0.56977    0.58969    1.000
    Si213    Si       0.02233    0.60782    0.51366    1.000
    N214     N        0.00226    0.57047    0.51646    1.000
    Si215    Si       0.03676    0.60691    0.59462    1.000
    N216     N        0.02796    0.62365    0.55442    1.000
    N217     N        0.04344    0.52577    0.54248    1.000
    Si218    Si       0.03841    0.52014    0.49944    1.000
    Si219    Si       0.01229    0.69685    0.58464    1.000
    N220     N        0.01691    0.73850    0.59242    1.000
    N221     N        0.00521    0.68217    0.54416    1.000
    Si222    Si       0.01004    0.67866    0.50131    1.000
    Si223    Si       0.01344    0.54401    0.62548    1.000
    N224     N        0.01093    0.52637    0.70201    1.000
    Si225    Si       0.04031    0.55622    0.68955    1.000
    N226     N        0.01946    0.62587    0.62812    1.000
    Si227    Si       0.04529    0.61247    0.73793    1.000
    N228     N        0.04343    0.59953    0.69757    1.000
    N229     N        0.04805    0.55478    0.64708    1.000
    Si230    Si       0.03835    0.63297    0.66793    1.000
    Si231    Si       0.99619    0.69694    0.69696    1.000
    N232     N        0.03089    0.72067    0.69207    1.000
    N233     N        0.04904    0.65628    0.74180    1.000
    N234     N        0.00335    0.65774    0.67915    1.000
    N235     N        0.01246    0.60002    0.82622    1.000
    Si236    Si       0.00428    0.57639    0.79046    1.000
    Si237    Si       0.00599    0.56822    0.85583    1.000
    N238     N        0.04003    0.55026    0.79346    1.000
    N239     N        0.00754    0.60190    0.75487    1.000
    N240     N        0.99900    0.53015    0.83820    1.000
    Si241    Si       0.01880    0.51406    0.80269    1.000
    Si242    Si       0.02444    0.64146    0.83432    1.000
    Si243    Si       0.01666    0.67690    0.76403    1.000
    N244     N        0.00359    0.66005    0.80029    1.000
    N245     N        0.03167    0.71809    0.85979    1.000
    Si246    Si       0.99391    0.69753    0.86626    1.000
    N247     N        0.99625    0.65397    0.86546    1.000
    N248     N        0.03898    0.56966    0.88507    1.000
    Si249    Si       0.01505    0.59362    0.98257    1.000
    N250     N        0.01802    0.51678    0.97195    1.000
    N251     N        0.01930    0.63741    0.97930    1.000
    N252     N        0.03286    0.74141    0.98751    1.000
    N253     N        0.01397    0.76180    0.79983    1.000
    N254     N        0.02527    0.75477    0.91938    1.000
    Si255    Si       0.01956    0.83679    0.07993    1.000
    N256     N        0.00427    0.86199    0.04836    1.000
    N257     N        0.01465    0.86559    0.11224    1.000
    Si258    Si       0.00806    0.76317    0.09159    1.000
    N259     N        0.04065    0.76505    0.11968    1.000
    Si260    Si       0.03645    0.88367    0.02431    1.000
    N261     N        0.99147    0.80456    0.08327    1.000
    N262     N        0.02112    0.97888    0.05921    1.000
    Si263    Si       0.02968    0.96436    0.09963    1.000
    N264     N        0.03292    0.92616    0.01243    1.000
    Si265    Si       0.01266    0.85566    0.18276    1.000
    Si266    Si       0.02942    0.80039    0.20726    1.000
    N267     N        0.00814    0.83779    0.22433    1.000
    N268     N        0.04341    0.82431    0.17324    1.000
    N269     N        0.02280    0.76109    0.19308    1.000
    Si270    Si       0.99453    0.98443    0.16607    1.000
    Si271    Si       0.04234    0.89169    0.13378    1.000
    N272     N        0.00109    0.95099    0.19119    1.000
    N273     N        0.99520    0.96486    0.12627    1.000
    Si274    Si       0.03819    0.93149    0.19815    1.000
    N275     N        0.02631    0.89453    0.17555    1.000
    N276     N        0.04638    0.92491    0.10327    1.000
    N277     N        0.04924    0.93093    0.23953    1.000
    Si278    Si       0.99124    0.01050    0.05247    1.000
    N279     N        0.02737    0.82378    0.29922    1.000
    Si280    Si       0.01174    0.78477    0.31122    1.000
    N281     N        0.03589    0.77533    0.34722    1.000
    Si282    Si       0.03587    0.84954    0.33843    1.000
    Si283    Si       0.03863    0.83996    0.26165    1.000
    N284     N        0.99774    0.87798    0.33152    1.000
    N285     N        0.02610    0.88418    0.27146    1.000
    Si286    Si       0.02245    0.92904    0.27257    1.000
    Si287    Si       0.03176    0.99356    0.31918    1.000
    N288     N        0.03720    0.95070    0.30771    1.000
    N289     N        0.02925    0.99840    0.36360    1.000
    Si290    Si       0.99544    0.90659    0.36183    1.000
    N291     N        0.01428    0.83153    0.37385    1.000
    N292     N        0.00464    0.77081    0.41241    1.000
    N293     N        0.03765    0.80324    0.48592    1.000
    Si294    Si       0.03026    0.79323    0.38698    1.000
    N295     N        0.00557    0.84228    0.44894    1.000
    Si296    Si       0.03230    0.87181    0.46465    1.000
    Si297    Si       0.99591    0.81457    0.48035    1.000
    N298     N        0.00467    0.97448    0.47427    1.000
    N299     N        0.01919    0.93450    0.38594    1.000
    N300     N        0.02569    0.91250    0.45039    1.000
    Si301    Si       0.03871    0.95111    0.46313    1.000
    Si302    Si       0.99484    0.92292    0.42121    1.000
    Si303    Si       0.05012    0.96433    0.38436    1.000
    N304     N        0.02605    0.79489    0.55597    1.000
    Si305    Si       0.03199    0.77782    0.59544    1.000
    N306     N        0.03356    0.87365    0.50928    1.000
    N307     N        0.01674    0.87750    0.58603    1.000
    Si308    Si       0.02222    0.89452    0.54543    1.000
    Si309    Si       0.01134    0.97200    0.55157    1.000
    N310     N        0.01247    0.97432    0.59566    1.000
    N311     N        0.00085    0.93077    0.53967    1.000
    N312     N        0.03452    0.00572    0.53599    1.000
    N313     N        0.00155    0.79808    0.62055    1.000
    Si314    Si       0.01809    0.82553    0.65010    1.000
    N315     N        0.02844    0.79882    0.68335    1.000
    N316     N        0.03811    0.77418    0.73993    1.000
    N317     N        0.99322    0.86001    0.64966    1.000
    N318     N        0.99692    0.97322    0.72813    1.000
    Si319    Si       0.02124    0.76113    0.70134    1.000
    Si320    Si       0.00118    0.96340    0.63642    1.000
    N321     N        0.04400    0.96790    0.64821    1.000
    N322     N        0.03820    0.90057    0.68324    1.000
    Si323    Si       0.99581    0.89649    0.67399    1.000
    Si324    Si       0.99059    0.00783    0.70010    1.000
    Si325    Si       0.02327    0.84604    0.76585    1.000
    N326     N        0.03246    0.87071    0.85789    1.000
    Si327    Si       0.99280    0.77300    0.76063    1.000
    N328     N        0.99120    0.88284    0.98468    1.000
    N329     N        0.04882    0.83137    0.79725    1.000
    N330     N        0.01430    0.88789    0.77186    1.000
    N331     N        0.04106    0.95457    0.78286    1.000
    N332     N        0.01099    0.93708    0.84002    1.000
    Si333    Si       0.02035    0.97247    0.81826    1.000
    Si334    Si       0.04275    0.90991    0.85102    1.000
    Si335    Si       0.03489    0.97990    0.74938    1.000
    N336     N        0.99356    0.93155    0.94129    1.000
    Si337    Si       0.99870    0.92611    0.98473    1.000
    Si338    Si       0.03438    0.77462    0.95637    1.000
    N339     N        0.04108    0.80711    0.88375    1.000
    Si340    Si       0.01677    0.84938    0.96616    1.000
    Si341    Si       0.01690    0.84254    0.88844    1.000
    N342     N        0.00736    0.80670    0.96813    1.000
    N343     N        0.00946    0.86279    0.92486    1.000
    Si344    Si       0.03501    0.76079    0.87527    1.000
    N345     N        0.03708    0.98124    0.90848    1.000
    Si346    Si       0.99611    0.97027    0.92041    1.000
    Si347    Si       0.07230    0.03441    0.02224    1.000
    N348     N        0.08989    0.04468    0.06056    1.000
    Si349    Si       0.07775    0.09319    0.04004    1.000
    N350     N        0.06885    0.11661    0.07706    1.000
    Si351    Si       0.07670    0.02941    0.10102    1.000
    N352     N        0.08160    0.12159    0.00542    1.000
    Si353    Si       0.05880    0.10444    0.11586    1.000
    N354     N        0.04911    0.06013    0.11859    1.000
    Si355    Si       0.06802    0.15980    0.07730    1.000
    N356     N        0.08608    0.17677    0.11275    1.000
    N357     N        0.08622    0.25150    0.04060    1.000
    Si358    Si       0.09662    0.21164    0.02704    1.000
    N359     N        0.10078    0.17324    0.05049    1.000
    N360     N        0.05616    0.20302    0.00558    1.000
    N361     N        0.10328    0.01397    0.17182    1.000
    N362     N        0.08317    0.11161    0.15150    1.000
    Si363    Si       0.05550    0.11900    0.18543    1.000
    N364     N        0.08002    0.01842    0.23652    1.000
    N365     N        0.07930    0.12936    0.21828    1.000
    N366     N        0.06857    0.19666    0.18393    1.000
    N367     N        0.09655    0.24827    0.22449    1.000
    N368     N        0.09154    0.24704    0.14205    1.000
    Si369    Si       0.09017    0.20203    0.14763    1.000
    Si370    Si       0.08959    0.20512    0.22145    1.000
    N371     N        0.04607    0.06790    0.02114    1.000
    Si372    Si       0.05283    0.25594    0.15661    1.000
    Si373    Si       0.06818    0.04179    0.26928    1.000
    N374     N        0.09846    0.06431    0.35903    1.000
    Si375    Si       0.09977    0.03996    0.32322    1.000
    N376     N        0.06540    0.02041    0.30750    1.000
    N377     N        0.10568    0.06012    0.28312    1.000
    N378     N        0.06700    0.18139    0.32292    1.000
    Si379    Si       0.07064    0.16505    0.28132    1.000
    Si380    Si       0.10011    0.18601    0.34911    1.000
    N381     N        0.06194    0.19502    0.25286    1.000
    Si382    Si       0.06641    0.06944    0.38725    1.000
    N383     N        0.07051    0.10532    0.41117    1.000
    Si384    Si       0.07604    0.06239    0.46027    1.000
    N385     N        0.07115    0.04248    0.42071    1.000
    N386     N        0.05777    0.02572    0.47695    1.000
    N387     N        0.05480    0.09695    0.47691    1.000
    N388     N        0.08573    0.16901    0.38644    1.000
    N389     N        0.09494    0.22937    0.41797    1.000
    Si390    Si       0.08778    0.24839    0.45601    1.000
    Si391    Si       0.06430    0.19560    0.41458    1.000
    Si392    Si       0.10133    0.13532    0.41037    1.000
    Si393    Si       0.07637    0.16964    0.47373    1.000
    N394     N        0.06315    0.21211    0.46995    1.000
    N395     N        0.09417    0.09599    0.53492    1.000
    Si396    Si       0.05877    0.10913    0.51720    1.000
    N397     N        0.10416    0.07848    0.60641    1.000
    N398     N        0.06329    0.18744    0.57718    1.000
    Si399    Si       0.08524    0.18231    0.61517    1.000
    N400     N        0.05889    0.15293    0.50936    1.000
    N401     N        0.06966    0.25115    0.58574    1.000
    Si402    Si       0.07581    0.04947    0.62116    1.000
    N403     N        0.05454    0.07750    0.64608    1.000
    Si404    Si       0.08363    0.11110    0.65204    1.000
    N405     N        0.05941    0.08817    0.72514    1.000
    N406     N        0.09465    0.04300    0.73591    1.000
    Si407    Si       0.10273    0.08228    0.72021    1.000
    N408     N        0.08991    0.01183    0.64031    1.000
    Si409    Si       0.05005    0.04552    0.73549    1.000
    Si410    Si       0.05418    0.17688    0.68106    1.000
    N411     N        0.10425    0.14276    0.62760    1.000
    N412     N        0.06620    0.13582    0.68234    1.000
    N413     N        0.05228    0.19356    0.64208    1.000
    N414     N        0.07546    0.20021    0.70893    1.000
    Si415    Si       0.10073    0.23412    0.70917    1.000
    N416     N        0.04861    0.02999    0.59409    1.000
    N417     N        0.08513    0.11658    0.80318    1.000
    Si418    Si       0.08670    0.09283    0.83856    1.000
    N419     N        0.08455    0.05019    0.83612    1.000
    N420     N        0.05966    0.11153    0.86455    1.000
    Si421    Si       0.06305    0.15554    0.85772    1.000
    Si422    Si       0.06951    0.18477    0.75005    1.000
    Si423    Si       0.09456    0.18184    0.90966    1.000
    N424     N        0.06888    0.09617    0.93304    1.000
    Si425    Si       0.09254    0.11768    0.96298    1.000
    N426     N        0.08713    0.15938    0.94941    1.000
    Si427    Si       0.04794    0.02043    0.92753    1.000
    Si428    Si       0.06333    0.19493    0.96347    1.000
    N429     N        0.05282    0.18017    0.89136    1.000
    N430     N        0.08178    0.22119    0.93393    1.000
    Si431    Si       0.04652    0.03564    0.85005    1.000
    N432     N        0.04426    0.04618    0.89248    1.000
    N433     N        0.08269    0.36224    0.08601    1.000
    Si434    Si       0.08088    0.32912    0.05466    1.000
    N435     N        0.07956    0.34540    0.01532    1.000
    Si436    Si       0.05260    0.36837    0.11567    1.000
    N437     N        0.06455    0.44888    0.07061    1.000
    Si438    Si       0.08177    0.46592    0.03317    1.000
    N439     N        0.10416    0.43251    0.01560    1.000
    Si440    Si       0.10287    0.45978    0.09083    1.000
    N441     N        0.05283    0.47410    0.00132    1.000
    Si442    Si       0.06481    0.27877    0.23136    1.000
    N443     N        0.06215    0.34554    0.15267    1.000
    Si444    Si       0.10272    0.34953    0.16436    1.000
    N445     N        0.07621    0.31830    0.24693    1.000
    N446     N        0.10221    0.46568    0.13725    1.000
    Si447    Si       0.08199    0.49456    0.16211    1.000
    N448     N        0.09208    0.49692    0.20595    1.000
    Si449    Si       0.07015    0.40996    0.22613    1.000
    N450     N        0.07436    0.41947    0.18311    1.000
    Si451    Si       0.06205    0.48845    0.23976    1.000
    N452     N        0.04832    0.44707    0.24170    1.000
    N453     N        0.09016    0.35052    0.35079    1.000
    Si454    Si       0.09032    0.30641    0.34084    1.000
    N455     N        0.06768    0.38092    0.28602    1.000
    Si456    Si       0.05446    0.37074    0.37299    1.000
    N457     N        0.04982    0.29482    0.32554    1.000
    Si458    Si       0.05626    0.44710    0.36438    1.000
    N459     N        0.08604    0.47889    0.36186    1.000
    N460     N        0.07034    0.50135    0.28239    1.000
    N461     N        0.06052    0.50230    0.42122    1.000
    N462     N        0.09504    0.28960    0.38228    1.000
    N463     N        0.08644    0.35429    0.42719    1.000
    Si464    Si       0.07392    0.31375    0.41129    1.000
    N465     N        0.06533    0.28391    0.44092    1.000
    Si466    Si       0.05999    0.38571    0.44445    1.000
    N467     N        0.08962    0.41719    0.44935    1.000
    N468     N        0.07626    0.41020    0.37704    1.000
    N469     N        0.07620    0.49656    0.49183    1.000
    Si470    Si       0.04970    0.34956    0.26072    1.000
    N471     N        0.04585    0.44419    0.32300    1.000
    N472     N        0.05851    0.28537    0.51234    1.000
    N473     N        0.09766    0.36478    0.58716    1.000
    Si474    Si       0.10185    0.27489    0.51883    1.000
    N475     N        0.05367    0.31882    0.57572    1.000
    Si476    Si       0.05166    0.36126    0.58233    1.000
    Si477    Si       0.09867    0.31764    0.58440    1.000
    N478     N        0.10311    0.38780    0.51625    1.000
    N479     N        0.05632    0.43834    0.50964    1.000
    Si480    Si       0.05964    0.39794    0.51523    1.000
    Si481    Si       0.08737    0.46621    0.52035    1.000
    N482     N        0.08524    0.47425    0.56279    1.000
    Si483    Si       0.06062    0.50700    0.57910    1.000
    N484     N        0.08352    0.42783    0.61933    1.000
    Si485    Si       0.08069    0.49472    0.71502    1.000
    Si486    Si       0.08636    0.38568    0.62406    1.000
    N487     N        0.09325    0.31057    0.62903    1.000
    N488     N        0.09607    0.33005    0.70451    1.000
    Si489    Si       0.07835    0.29128    0.70490    1.000
    N490     N        0.09908    0.26431    0.67838    1.000
    N491     N        0.08260    0.26288    0.74048    1.000
    N492     N        0.06439    0.47355    0.67864    1.000
    Si493    Si       0.09548    0.45371    0.65044    1.000
    N494     N        0.04247    0.37178    0.62146    1.000
    N495     N        0.09425    0.29467    0.80846    1.000
    Si496    Si       0.05311    0.31011    0.80972    1.000
    N497     N        0.09823    0.32881    0.86940    1.000
    Si498    Si       0.08057    0.38361    0.79443    1.000
    N499     N        0.05016    0.35177    0.79703    1.000
    Si500    Si       0.04895    0.47993    0.85779    1.000
    Si501    Si       0.05950    0.45697    0.78512    1.000
    N502     N        0.09830    0.46561    0.80669    1.000
    N503     N        0.09932    0.39443    0.83213    1.000
    N504     N        0.05169    0.41537    0.78250    1.000
    Si505    Si       0.10503    0.43779    0.84120    1.000
    N506     N        0.05600    0.48501    0.74985    1.000
    Si507    Si       0.10471    0.50835    0.81666    1.000
    N508     N        0.07669    0.44741    0.87117    1.000
    Si509    Si       0.05849    0.37161    0.98715    1.000
    N510     N        0.06116    0.29472    0.92296    1.000
    Si511    Si       0.05715    0.31717    0.88558    1.000
    Si512    Si       0.08897    0.26076    0.91677    1.000
    N513     N        0.09828    0.38229    0.96977    1.000
    N514     N        0.10029    0.38664    0.90199    1.000
    Si515    Si       0.10258    0.48224    0.93249    1.000
    N516     N        0.06266    0.50533    0.92959    1.000
    N517     N        0.08431    0.44236    0.94511    1.000
    Si518    Si       0.07452    0.42077    0.90579    1.000
    N519     N        0.08553    0.26120    0.87284    1.000
    N520     N        0.06524    0.54819    0.07545    1.000
    N521     N        0.06687    0.54107    0.00999    1.000
    Si522    Si       0.06833    0.56314    0.11750    1.000
    Si523    Si       0.10109    0.53382    0.05730    1.000
    N524     N        0.08448    0.61824    0.99798    1.000
    Si525    Si       0.08757    0.65983    0.01639    1.000
    N526     N        0.07714    0.70943    0.09429    1.000
    N527     N        0.08847    0.72370    0.02332    1.000
    Si528    Si       0.07036    0.73807    0.06027    1.000
    N529     N        0.06115    0.65944    0.04819    1.000
    N530     N        0.05827    0.64377    0.11766    1.000
    Si531    Si       0.05123    0.67392    0.08785    1.000
    N532     N        0.10115    0.59306    0.11536    1.000
    N533     N        0.08090    0.53994    0.15329    1.000
    Si534    Si       0.09129    0.57185    0.18050    1.000
    N535     N        0.06211    0.57397    0.21362    1.000
    N536     N        0.09593    0.61722    0.17395    1.000
    Si537    Si       0.09850    0.63396    0.13204    1.000
    Si538    Si       0.07372    0.70142    0.20533    1.000
    Si539    Si       0.09770    0.70677    0.13117    1.000
    N540     N        0.07932    0.72891    0.24063    1.000
    N541     N        0.06956    0.71440    0.16426    1.000
    Si542    Si       0.07793    0.54171    0.29997    1.000
    N543     N        0.09954    0.53169    0.33579    1.000
    N544     N        0.10089    0.56765    0.27558    1.000
    Si545    Si       0.08286    0.68215    0.35393    1.000
    N546     N        0.05336    0.66774    0.32771    1.000
    Si547    Si       0.07904    0.51841    0.37989    1.000
    Si548    Si       0.08801    0.51610    0.45498    1.000
    N549     N        0.08099    0.60116    0.42110    1.000
    Si550    Si       0.07115    0.58109    0.46001    1.000
    N551     N        0.10949    0.55974    0.46013    1.000
    Si552    Si       0.08391    0.64345    0.41212    1.000
    N553     N        0.05659    0.73649    0.45064    1.000
    N554     N        0.08358    0.67488    0.43973    1.000
    N555     N        0.05858    0.70332    0.38297    1.000
    Si556    Si       0.08178    0.71432    0.42060    1.000
    Si557    Si       0.08461    0.75070    0.48475    1.000
    Si558    Si       0.09234    0.67882    0.48179    1.000
    Si559    Si       0.08082    0.59663    0.24817    1.000
    N560     N        0.09106    0.53230    0.59821    1.000
    N561     N        0.07806    0.60105    0.60684    1.000
    Si562    Si       0.10305    0.61746    0.51487    1.000
    N563     N        0.09343    0.63883    0.55093    1.000
    Si564    Si       0.05422    0.65877    0.54924    1.000
    Si565    Si       0.09079    0.70156    0.60504    1.000
    N566     N        0.05393    0.68430    0.58550    1.000
    N567     N        0.05688    0.67549    0.50658    1.000
    Si568    Si       0.08488    0.56415    0.62803    1.000
    N569     N        0.07465    0.53718    0.70821    1.000
    Si570    Si       0.07040    0.70216    0.68093    1.000
    N571     N        0.07338    0.65909    0.66821    1.000
    N572     N        0.09658    0.70325    0.71645    1.000
    N573     N        0.08402    0.71956    0.64366    1.000
    Si574    Si       0.10845    0.62822    0.58907    1.000
    N575     N        0.06349    0.60124    0.49791    1.000
    N576     N        0.08091    0.59826    0.76054    1.000
    N577     N        0.08825    0.58040    0.83312    1.000
    Si578    Si       0.07931    0.56862    0.79171    1.000
    N579     N        0.07445    0.51471    0.85126    1.000
    Si580    Si       0.07281    0.55433    0.86540    1.000
    N581     N        0.06141    0.65756    0.85021    1.000
    Si582    Si       0.07031    0.69983    0.85450    1.000
    Si583    Si       0.05155    0.75294    0.77820    1.000
    Si584    Si       0.07808    0.68754    0.75238    1.000
    N585     N        0.04642    0.71115    0.77225    1.000
    Si586    Si       0.06115    0.58468    0.91804    1.000
    N587     N        0.10040    0.57314    0.89698    1.000
    Si588    Si       0.08169    0.57612    0.98779    1.000
    N589     N        0.06483    0.62989    0.91974    1.000
    Si590    Si       0.06355    0.51175    0.97539    1.000
    N591     N        0.04886    0.58092    0.95860    1.000
    Si592    Si       0.05940    0.63950    0.96216    1.000
    N593     N        0.06981    0.67898    0.97844    1.000
    Si594    Si       0.07050    0.72185    0.98463    1.000
    N595     N        0.09482    0.73523    0.95040    1.000
    Si596    Si       0.08266    0.65150    0.88735    1.000
    N597     N        0.08416    0.69388    0.89570    1.000
    N598     N        0.10520    0.66679    0.77876    1.000
    Si599    Si       0.09200    0.84513    0.06055    1.000
    Si600    Si       0.07476    0.78594    0.10287    1.000
    N601     N        0.06071    0.82210    0.07974    1.000
    N602     N        0.10062    0.76761    0.07224    1.000
    N603     N        0.10250    0.82836    0.02219    1.000
    N604     N        0.07091    0.88270    0.05300    1.000
    N605     N        0.08514    0.95286    0.05339    1.000
    Si606    Si       0.08051    0.91788    0.07880    1.000
    N607     N        0.06267    0.99487    0.00785    1.000
    N608     N        0.05743    0.99232    0.11573    1.000
    Si609    Si       0.04981    0.96212    0.03124    1.000
    Si610    Si       0.06708    0.99267    0.15958    1.000
    N611     N        0.05713    0.79819    0.23979    1.000
    N612     N        0.09855    0.80044    0.13502    1.000
    Si613    Si       0.08287    0.83286    0.15764    1.000
    N614     N        0.08019    0.87230    0.13916    1.000
    Si615    Si       0.09374    0.82085    0.23347    1.000
    N616     N        0.10637    0.83492    0.19559    1.000
    N617     N        0.07032    0.95227    0.17832    1.000
    N618     N        0.07664    0.83027    0.34443    1.000
    Si619    Si       0.07591    0.78694    0.33650    1.000
    N620     N        0.08671    0.77612    0.29670    1.000
    Si621    Si       0.09875    0.86738    0.35401    1.000
    N622     N        0.07934    0.85539    0.25413    1.000
    Si623    Si       0.06238    0.76114    0.26329    1.000
    N624     N        0.06186    0.89060    0.34331    1.000
    N625     N        0.08482    0.95822    0.35837    1.000
    Si626    Si       0.06976    0.93001    0.32740    1.000
    N627     N        0.09336    0.91664    0.29203    1.000
    Si628    Si       0.07809    0.89955    0.25402    1.000
    Si629    Si       0.10469    0.81347    0.38994    1.000
    N630     N        0.06604    0.80454    0.41034    1.000
    N631     N        0.09972    0.78837    0.46979    1.000
    N632     N        0.07053    0.85583    0.45372    1.000
    Si633    Si       0.06502    0.81186    0.45376    1.000
    N634     N        0.05571    0.97377    0.42734    1.000
    N635     N        0.10853    0.77866    0.36315    1.000
    N636     N        0.10504    0.85866    0.39624    1.000
    N637     N        0.06749    0.95632    0.49564    1.000
    N638     N        0.08266    0.83176    0.53104    1.000
    N639     N        0.07447    0.77998    0.59800    1.000
    Si640    Si       0.07759    0.87350    0.52162    1.000
    Si641    Si       0.05785    0.86895    0.59796    1.000
    Si642    Si       0.05681    0.79756    0.52388    1.000
    Si643    Si       0.09045    0.81539    0.62022    1.000
    N644     N        0.10354    0.84875    0.59097    1.000
    Si645    Si       0.10180    0.76247    0.56576    1.000
    N646     N        0.07819    0.75961    0.52810    1.000
    Si647    Si       0.05422    0.98804    0.60880    1.000
    Si648    Si       0.06778    0.99927    0.50881    1.000
    Si649    Si       0.09304    0.92332    0.58548    1.000
    N650     N        0.08156    0.96548    0.58362    1.000
    N651     N        0.06651    0.89970    0.55764    1.000
    N652     N        0.06970    0.90562    0.62005    1.000
    N653     N        0.04820    0.84756    0.72954    1.000
    N654     N        0.09870    0.80285    0.70984    1.000
    Si655    Si       0.05727    0.80747    0.71874    1.000
    N656     N        0.05603    0.83806    0.63157    1.000
    Si657    Si       0.06521    0.88298    0.71146    1.000
    N658     N        0.10488    0.87585    0.69615    1.000
    Si659    Si       0.05953    0.92752    0.65546    1.000
    N660     N        0.06517    0.98246    0.71718    1.000
    Si661    Si       0.09383    0.94884    0.72437    1.000
    N662     N        0.09279    0.94066    0.67987    1.000
    N663     N        0.07589    0.91413    0.74261    1.000
    Si664    Si       0.08298    0.98770    0.67554    1.000
    N665     N        0.09570    0.83758    0.84860    1.000
    Si666    Si       0.06271    0.85611    0.82850    1.000
    N667     N        0.07847    0.76281    0.86527    1.000
    N668     N        0.09303    0.75919    0.78108    1.000
    N669     N        0.06992    0.89902    0.81575    1.000
    Si670    Si       0.10313    0.91721    0.83937    1.000
    Si671    Si       0.08380    0.80372    0.87530    1.000
    Si672    Si       0.08576    0.83424    0.98456    1.000
    N673     N        0.07201    0.79535    0.96527    1.000
    Si674    Si       0.10466    0.77575    0.94531    1.000
    N675     N        0.08751    0.00775    0.93782    1.000
    N676     N        0.05024    0.85697    0.99285    1.000
    N677     N        0.07425    0.93215    0.87014    1.000
    Si678    Si       0.09502    0.99870    0.97915    1.000
    Si679    Si       0.06951    0.97577    0.87966    1.000
    N680     N        0.04871    0.99350    0.84295    1.000
    Si681    Si       0.05063    0.91184    0.77821    1.000
    Si682    Si       0.13199    0.03013    0.06799    1.000
    N683     N        0.12473    0.10391    0.04665    1.000
    Si684    Si       0.15466    0.10025    0.07553    1.000
    N685     N        0.11879    0.01823    0.10829    1.000
    N686     N        0.14366    0.12736    0.11182    1.000
    N687     N        0.16445    0.05829    0.07556    1.000
    Si688    Si       0.11706    0.14150    0.02651    1.000
    N689     N        0.14703    0.22927    0.04211    1.000
    Si690    Si       0.13089    0.17230    0.11425    1.000
    N691     N        0.15210    0.15562    0.00734    1.000
    Si692    Si       0.16092    0.20009    0.00423    1.000
    N693     N        0.14824    0.03046    0.22815    1.000
    Si694    Si       0.13635    0.02708    0.14587    1.000
    Si695    Si       0.12696    0.11224    0.14913    1.000
    N696     N        0.14039    0.07075    0.14970    1.000
    N697     N        0.14273    0.10002    0.23617    1.000
    Si698    Si       0.11424    0.01041    0.21300    1.000
    N699     N        0.14911    0.13260    0.17894    1.000
    Si700    Si       0.15403    0.17531    0.18580    1.000
    N701     N        0.12683    0.17968    0.22144    1.000
    Si702    Si       0.13874    0.25475    0.23757    1.000
    Si703    Si       0.11791    0.13775    0.23501    1.000
    N704     N        0.13119    0.19060    0.15224    1.000
    N705     N        0.16961    0.18318    0.09627    1.000
    Si706    Si       0.14003    0.06279    0.25760    1.000
    N707     N        0.13160    0.01306    0.33345    1.000
    N708     N        0.15659    0.25361    0.39665    1.000
    N709     N        0.11452    0.22652    0.34962    1.000
    N710     N        0.13538    0.16143    0.34029    1.000
    Si711    Si       0.14653    0.14782    0.30098    1.000
    N712     N        0.13326    0.23764    0.27785    1.000
    N713     N        0.10996    0.14750    0.27644    1.000
    Si714    Si       0.13731    0.24947    0.31827    1.000
    Si715    Si       0.13617    0.07468    0.37731    1.000
    N716     N        0.11655    0.06609    0.47603    1.000
    N717     N        0.13545    0.11531    0.39263    1.000
    N718     N        0.14470    0.05011    0.41036    1.000
    Si719    Si       0.15112    0.05557    0.45295    1.000
    N720     N        0.16079    0.01374    0.45849    1.000
    Si721    Si       0.14380    0.17667    0.44893    1.000
    N722     N        0.13004    0.20280    0.48237    1.000
    Si723    Si       0.15807    0.14906    0.37457    1.000
    Si724    Si       0.11394    0.25123    0.38609    1.000
    N725     N        0.15401    0.18029    0.40534    1.000
    Si726    Si       0.16429    0.19045    0.24778    1.000
    N727     N        0.10883    0.15158    0.45027    1.000
    Si728    Si       0.16284    0.01012    0.41368    1.000
    N729     N        0.14765    0.06748    0.54593    1.000
    Si730    Si       0.12151    0.09557    0.57054    1.000
    Si731    Si       0.12976    0.08568    0.51015    1.000
    N732     N        0.14676    0.12559    0.50924    1.000
    N733     N        0.13293    0.01018    0.58497    1.000
    Si734    Si       0.16397    0.03016    0.56043    1.000
    N735     N        0.14327    0.13248    0.57664    1.000
    N736     N        0.11994    0.20535    0.60961    1.000
    Si737    Si       0.14944    0.22168    0.51509    1.000
    N738     N        0.11803    0.23875    0.54071    1.000
    N739     N        0.13992    0.22676    0.72532    1.000
    Si740    Si       0.11118    0.24018    0.58456    1.000
    Si741    Si       0.14676    0.13829    0.62071    1.000
    Si742    Si       0.15066    0.07511    0.66433    1.000
    N743     N        0.11239    0.08776    0.67734    1.000
    N744     N        0.15673    0.03909    0.64020    1.000
    Si745    Si       0.12105    0.00699    0.73919    1.000
    N746     N        0.13000    0.10941    0.74478    1.000
    N747     N        0.16809    0.10491    0.63646    1.000
    N748     N        0.15961    0.24316    0.65768    1.000
    Si749    Si       0.16028    0.21062    0.62710    1.000
    N750     N        0.12769    0.09124    0.85291    1.000
    Si751    Si       0.12744    0.04433    0.84945    1.000
    N752     N        0.14045    0.01535    0.81901    1.000
    N753     N        0.16019    0.02602    0.75105    1.000
    Si754    Si       0.14032    0.13439    0.85380    1.000
    Si755    Si       0.11888    0.13424    0.78138    1.000
    N756     N        0.15244    0.14046    0.81074    1.000
    N757     N        0.13254    0.23902    0.79174    1.000
    Si758    Si       0.14124    0.20629    0.76444    1.000
    N759     N        0.10972    0.17402    0.76662    1.000
    N760     N        0.13427    0.10155    0.96757    1.000
    Si761    Si       0.13972    0.05907    0.97317    1.000
    N762     N        0.14541    0.04462    0.93265    1.000
    N763     N        0.11702    0.21023    0.98822    1.000
    Si764    Si       0.12949    0.22166    0.94739    1.000
    N765     N        0.13605    0.19100    0.91754    1.000
    N766     N        0.10538    0.15794    0.86861    1.000
    N767     N        0.10609    0.04040    0.99366    1.000
    N768     N        0.14987    0.36108    0.01780    1.000
    N769     N        0.12000    0.30776    0.04983    1.000
    N770     N        0.15580    0.35410    0.09341    1.000
    Si771    Si       0.15445    0.33641    0.05277    1.000
    N772     N        0.14281    0.26819    0.09759    1.000
    Si773    Si       0.12493    0.26421    0.05752    1.000
    Si774    Si       0.12056    0.38281    0.09712    1.000
    N775     N        0.12858    0.42400    0.08951    1.000
    N776     N        0.16284    0.49877    0.01549    1.000
    N777     N        0.10953    0.49010    0.05758    1.000
    N778     N        0.12458    0.35530    0.20302    1.000
    N779     N        0.12108    0.30975    0.15759    1.000
    Si780    Si       0.15130    0.30414    0.18994    1.000
    Si781    Si       0.12865    0.27041    0.13941    1.000
    N782     N        0.14225    0.29619    0.23102    1.000
    Si783    Si       0.11791    0.33257    0.24090    1.000
    N784     N        0.16392    0.26558    0.16765    1.000
    Si785    Si       0.14114    0.39577    0.21217    1.000
    N786     N        0.11347    0.38452    0.14141    1.000
    Si787    Si       0.10900    0.42526    0.15568    1.000
    N788     N        0.11077    0.40732    0.24090    1.000
    N789     N        0.15823    0.50745    0.18343    1.000
    N790     N        0.13997    0.43142    0.18531    1.000
    N791     N        0.13269    0.34975    0.27755    1.000
    N792     N        0.12674    0.29326    0.32048    1.000
    Si793    Si       0.15440    0.32511    0.30633    1.000
    Si794    Si       0.12585    0.37775    0.35258    1.000
    N795     N        0.15899    0.35141    0.34275    1.000
    N796     N        0.14672    0.47252    0.30485    1.000
    N797     N        0.12425    0.40617    0.31972    1.000
    Si798    Si       0.11835    0.49204    0.33430    1.000
    Si799    Si       0.15759    0.43244    0.31472    1.000
    N800     N        0.15344    0.50480    0.35986    1.000
    N801     N        0.11944    0.27304    0.47975    1.000
    Si802    Si       0.12808    0.36166    0.42747    1.000
    N803     N        0.14406    0.32211    0.42838    1.000
    Si804    Si       0.14853    0.30188    0.46721    1.000
    N805     N        0.14132    0.38482    0.46154    1.000
    Si806    Si       0.14451    0.48299    0.48332    1.000
    Si807    Si       0.14103    0.49356    0.40561    1.000
    N808     N        0.12687    0.49210    0.44684    1.000
    N809     N        0.13875    0.39015    0.39364    1.000
    N810     N        0.13691    0.45108    0.39939    1.000
    Si811    Si       0.11598    0.41307    0.48359    1.000
    Si812    Si       0.10701    0.41999    0.40717    1.000
    Si813    Si       0.11060    0.38754    0.28084    1.000
    N814     N        0.11640    0.30496    0.54737    1.000
    Si815    Si       0.15883    0.31823    0.54111    1.000
    N816     N        0.13658    0.26932    0.60521    1.000
    N817     N        0.15884    0.35674    0.56110    1.000
    Si818    Si       0.12414    0.38054    0.55578    1.000
    N819     N        0.13290    0.42036    0.56814    1.000
    Si820    Si       0.15752    0.43606    0.53660    1.000
    N821     N        0.12631    0.45029    0.50673    1.000
    N822     N        0.12100    0.47728    0.62238    1.000
    N823     N        0.14651    0.31184    0.66278    1.000
    Si824    Si       0.12862    0.27584    0.64751    1.000
    Si825    Si       0.12119    0.34189    0.73591    1.000
    N826     N        0.11817    0.37664    0.65176    1.000
    N827     N        0.15919    0.36506    0.72812    1.000
    Si828    Si       0.11048    0.33619    0.66223    1.000
    N829     N        0.14806    0.43318    0.74213    1.000
    N830     N        0.13344    0.43880    0.66993    1.000
    N831     N        0.12405    0.49531    0.70798    1.000
    Si832    Si       0.15667    0.40081    0.65155    1.000
    Si833    Si       0.15893    0.47100    0.64770    1.000
    Si834    Si       0.14830    0.45844    0.70692    1.000
    N835     N        0.16078    0.33061    0.49942    1.000
    Si836    Si       0.10766    0.44952    0.58990    1.000
    N837     N        0.15136    0.27543    0.84882    1.000
    N838     N        0.15782    0.36801    0.85903    1.000
    Si839    Si       0.11258    0.36821    0.86452    1.000
    N840     N        0.13742    0.30413    0.75223    1.000
    N841     N        0.10924    0.37354    0.76432    1.000
    Si842    Si       0.11231    0.27438    0.77344    1.000
    Si843    Si       0.11042    0.29148    0.85025    1.000
    Si844    Si       0.14838    0.39438    0.75867    1.000
    N845     N        0.14656    0.43405    0.85194    1.000
    Si846    Si       0.15501    0.29838    0.93803    1.000
    Si847    Si       0.11849    0.36457    0.93455    1.000
    N848     N        0.12708    0.32645    0.95599    1.000
    N849     N        0.12941    0.26289    0.93121    1.000
    Si850    Si       0.11575    0.34576    0.99472    1.000
    N851     N        0.16035    0.37638    0.92700    1.000
    Si852    Si       0.16506    0.45367    0.88474    1.000
    N853     N        0.10786    0.49894    0.97406    1.000
    N854     N        0.14347    0.47994    0.91505    1.000
    N855     N        0.15587    0.43171    0.96981    1.000
    Si856    Si       0.11404    0.42212    0.97503    1.000
    N857     N        0.14184    0.51014    0.83619    1.000
    Si858    Si       0.13930    0.57578    0.10813    1.000
    N859     N        0.12631    0.55527    0.02604    1.000
    N860     N        0.13162    0.53579    0.08862    1.000
    N861     N        0.15633    0.60079    0.07716    1.000
    Si862    Si       0.15758    0.58035    0.03961    1.000
    Si863    Si       0.15301    0.50793    0.06093    1.000
    Si864    Si       0.13064    0.71433    0.02331    1.000
    N865     N        0.12929    0.67162    0.02003    1.000
    N866     N        0.15412    0.72491    0.05806    1.000
    N867     N        0.12587    0.56085    0.20429    1.000
    Si868    Si       0.12893    0.51804    0.21391    1.000
    N869     N        0.11203    0.62524    0.24457    1.000
    N870     N        0.15926    0.62247    0.19451    1.000
    Si871    Si       0.16139    0.58248    0.21163    1.000
    Si872    Si       0.14352    0.71250    0.18425    1.000
    N873     N        0.11360    0.68328    0.20723    1.000
    Si874    Si       0.11952    0.64121    0.20414    1.000
    Si875    Si       0.11874    0.71138    0.24176    1.000
    N876     N        0.14708    0.73516    0.21996    1.000
    N877     N        0.12923    0.73372    0.14962    1.000
    N878     N        0.12317    0.67044    0.13120    1.000
    Si879    Si       0.14229    0.55571    0.27670    1.000
    Si880    Si       0.13842    0.54951    0.35829    1.000
    Si881    Si       0.13561    0.62696    0.35883    1.000
    N882     N        0.16061    0.54788    0.31531    1.000
    N883     N        0.14336    0.51803    0.25585    1.000
    N884     N        0.12967    0.63083    0.31576    1.000
    N885     N        0.12535    0.58788    0.37177    1.000
    Si886    Si       0.13473    0.64585    0.27621    1.000
    N887     N        0.15373    0.75006    0.29266    1.000
    N888     N        0.12487    0.68940    0.27806    1.000
    Si889    Si       0.14079    0.71307    0.30943    1.000
    N890     N        0.11319    0.71529    0.34367    1.000
    N891     N        0.14863    0.61044    0.43355    1.000
    Si892    Si       0.11991    0.57772    0.41521    1.000
    N893     N        0.11495    0.53442    0.39933    1.000
    Si894    Si       0.13933    0.55652    0.49185    1.000
    N895     N        0.10638    0.65275    0.37638    1.000
    N896     N        0.11270    0.71656    0.48241    1.000
    Si897    Si       0.14254    0.72329    0.45233    1.000
    N898     N        0.12011    0.64481    0.48545    1.000
    Si899    Si       0.12976    0.74198    0.37287    1.000
    Si900    Si       0.15590    0.64286    0.46211    1.000
    N901     N        0.12116    0.72757    0.41371    1.000
    N902     N        0.16542    0.68514    0.45107    1.000
    N903     N        0.12906    0.58479    0.52344    1.000
    N904     N        0.14574    0.60495    0.59066    1.000
    Si905    Si       0.15165    0.57475    0.55932    1.000
    N906     N        0.15312    0.53409    0.57692    1.000
    Si907    Si       0.13183    0.52195    0.61497    1.000
    N908     N        0.14649    0.51774    0.51043    1.000
    N909     N        0.12890    0.64048    0.72169    1.000
    Si910    Si       0.16033    0.71050    0.57014    1.000
    N911     N        0.11723    0.72230    0.57746    1.000
    N912     N        0.11375    0.66347    0.61402    1.000
    N913     N        0.13507    0.57020    0.71601    1.000
    N914     N        0.13599    0.61689    0.66026    1.000
    Si915    Si       0.15010    0.60845    0.70070    1.000
    Si916    Si       0.11809    0.53761    0.69458    1.000
    N917     N        0.11751    0.54750    0.65155    1.000
    N918     N        0.14964    0.74972    0.71147    1.000
    N919     N        0.14595    0.68162    0.66918    1.000
    Si920    Si       0.11540    0.65397    0.65648    1.000
    Si921    Si       0.13640    0.68592    0.71305    1.000
    Si922    Si       0.16581    0.60998    0.62787    1.000
    N923     N        0.14291    0.60162    0.77787    1.000
    Si924    Si       0.14276    0.56091    0.75940    1.000
    N925     N        0.15945    0.59564    0.84667    1.000
    Si926    Si       0.11819    0.59878    0.86128    1.000
    Si927    Si       0.11353    0.62800    0.76092    1.000
    N928     N        0.11104    0.53964    0.78280    1.000
    N929     N        0.13812    0.73272    0.89393    1.000
    Si930    Si       0.11668    0.74410    0.85715    1.000
    Si931    Si       0.13104    0.68847    0.80575    1.000
    N932     N        0.15334    0.72318    0.78938    1.000
    N933     N        0.16442    0.65988    0.81434    1.000
    N934     N        0.15286    0.73126    0.98969    1.000
    N935     N        0.10744    0.70827    0.83403    1.000
    Si936    Si       0.13553    0.52848    0.99186    1.000
    Si937    Si       0.13589    0.56822    0.92514    1.000
    N938     N        0.15712    0.60465    0.93905    1.000
    N939     N        0.11373    0.55824    0.96201    1.000
    N940     N        0.16429    0.54690    0.89869    1.000
    Si941    Si       0.15511    0.64208    0.91806    1.000
    Si942    Si       0.11650    0.70831    0.92316    1.000
    N943     N        0.12280    0.63621    0.88582    1.000
    N944     N        0.14263    0.67915    0.93974    1.000
    Si945    Si       0.14655    0.83214    0.02966    1.000
    N946     N        0.13646    0.85247    0.06701    1.000
    N947     N        0.15686    0.78339    0.10680    1.000
    Si948    Si       0.14439    0.76609    0.06991    1.000
    N949     N        0.16285    0.79208    0.03525    1.000
    Si950    Si       0.15080    0.89403    0.07628    1.000
    N951     N        0.15179    0.92305    0.04428    1.000
    Si952    Si       0.12616    0.95747    0.03300    1.000
    N953     N        0.14374    0.99617    0.04398    1.000
    N954     N        0.11624    0.90611    0.09891    1.000
    Si955    Si       0.14724    0.83605    0.18468    1.000
    Si956    Si       0.13405    0.77657    0.14511    1.000
    N957     N        0.14972    0.85828    0.14716    1.000
    N958     N        0.15546    0.79334    0.18076    1.000
    Si959    Si       0.15842    0.77623    0.22197    1.000
    Si960    Si       0.10752    0.93848    0.19397    1.000
    N961     N        0.16770    0.85937    0.21437    1.000
    Si962    Si       0.12135    0.88956    0.13841    1.000
    N963     N        0.13201    0.92375    0.16208    1.000
    Si964    Si       0.15109    0.89733    0.23047    1.000
    N965     N        0.10878    0.90638    0.22309    1.000
    N966     N        0.12955    0.96963    0.21534    1.000
    Si967    Si       0.12996    0.78672    0.28845    1.000
    N968     N        0.15386    0.81126    0.31489    1.000
    N969     N        0.13520    0.87858    0.33431    1.000
    Si970    Si       0.16769    0.84983    0.33202    1.000
    N971     N        0.15838    0.90040    0.27172    1.000
    Si972    Si       0.13566    0.91217    0.30729    1.000
    N973     N        0.14883    0.94961    0.32500    1.000
    Si974    Si       0.12711    0.97529    0.35502    1.000
    Si975    Si       0.10797    0.87051    0.43881    1.000
    N976     N        0.14178    0.80865    0.41359    1.000
    N977     N        0.13763    0.84520    0.46276    1.000
    Si978    Si       0.13784    0.80059    0.45594    1.000
    N979     N        0.15990    0.76231    0.46305    1.000
    Si980    Si       0.14337    0.94940    0.43249    1.000
    N981     N        0.13791    0.97801    0.40014    1.000
    Si982    Si       0.14685    0.99479    0.49538    1.000
    N983     N        0.13484    0.90635    0.43350    1.000
    N984     N        0.13255    0.95940    0.47352    1.000
    N985     N        0.12807    0.79794    0.24713    1.000
    N986     N        0.13363    0.79076    0.56422    1.000
    N987     N        0.14695    0.85155    0.52977    1.000
    Si988    Si       0.11894    0.83031    0.55417    1.000
    Si989    Si       0.13572    0.86929    0.61396    1.000
    N990     N        0.10677    0.89592    0.49964    1.000
    N991     N        0.13293    0.90963    0.59318    1.000
    N992     N        0.12779    0.94713    0.54069    1.000
    Si993    Si       0.15902    0.92525    0.56334    1.000
    Si994    Si       0.11202    0.98339    0.55999    1.000
    N995     N        0.10847    0.00469    0.52105    1.000
    Si996    Si       0.10615    0.93819    0.50166    1.000
    N997     N        0.12311    0.82448    0.64750    1.000
    N998     N        0.15768    0.82478    0.70878    1.000
    Si999    Si       0.13811    0.78856    0.72403    1.000
    Si1000   Si       0.12079    0.83597    0.68970    1.000
    N1001    N        0.15373    0.93613    0.70262    1.000
    N1002    N        0.12286    0.99813    0.69568    1.000
    Si1003   Si       0.12616    0.91265    0.67908    1.000
    Si1004   Si       0.15737    0.97569    0.68370    1.000
    N1005    N        0.15396    0.97059    0.64035    1.000
    N1006    N        0.14853    0.88918    0.65218    1.000
    Si1007   Si       0.13043    0.00640    0.62802    1.000
    Si1008   Si       0.14646    0.87641    0.49502    1.000
    Si1009   Si       0.13565    0.85366    0.84376    1.000
    N1010    N        0.14960    0.79198    0.76485    1.000
    N1011    N        0.14571    0.85082    0.80178    1.000
    N1012    N        0.14063    0.77278    0.83414    1.000
    Si1013   Si       0.13343    0.76127    0.79188    1.000
    Si1014   Si       0.13864    0.98276    0.84719    1.000
    N1015    N        0.13493    0.89476    0.85933    1.000
    Si1016   Si       0.14107    0.94837    0.78304    1.000
    N1017    N        0.12574    0.94825    0.82322    1.000
    N1018    N        0.15268    0.91028    0.76194    1.000
    N1019    N        0.11567    0.96914    0.75585    1.000
    N1020    N        0.14100    0.79289    0.96260    1.000
    Si1021   Si       0.15652    0.87563    0.96501    1.000
    Si1022   Si       0.13401    0.82834    0.93344    1.000
    N1023    N        0.11373    0.85701    0.95982    1.000
    N1024    N        0.15535    0.97758    0.93221    1.000
    N1025    N        0.11047    0.99814    0.87852    1.000
    N1026    N        0.12055    0.96561    0.98971    1.000
    Si1027   Si       0.15465    0.95479    0.96790    1.000
    Si1028   Si       0.12539    0.00837    0.91868    1.000
    N1029    N        0.10983    0.80136    0.91079    1.000
    Si1030   Si       0.20610    0.05416    0.08589    1.000
    N1031    N        0.18972    0.12507    0.06726    1.000
    Si1032   Si       0.22002    0.11622    0.03907    1.000
    Si1033   Si       0.21391    0.05640    0.00998    1.000
    N1034    N        0.21605    0.01543    0.02752    1.000
    N1035    N        0.21798    0.01229    0.09596    1.000
    N1036    N        0.20447    0.10324    0.99888    1.000
    Si1037   Si       0.18716    0.14426    0.10626    1.000
    Si1038   Si       0.17951    0.21390    0.06431    1.000
    N1039    N        0.19939    0.19617    0.02930    1.000
    N1040    N        0.20311    0.24375    0.08253    1.000
    N1041    N        0.22209    0.14152    0.13270    1.000
    N1042    N        0.21136    0.07656    0.12476    1.000
    N1043    N        0.22126    0.03440    0.22415    1.000
    N1044    N        0.17855    0.02169    0.15138    1.000
    Si1045   Si       0.18353    0.06652    0.15701    1.000
    N1046    N        0.19857    0.08725    0.19271    1.000
    Si1047   Si       0.17540    0.11708    0.21195    1.000
    N1048    N        0.17235    0.22849    0.22538    1.000
    N1049    N        0.18163    0.15670    0.22707    1.000
    Si1050   Si       0.18970    0.23316    0.18510    1.000
    N1051    N        0.19313    0.19243    0.17089    1.000
    N1052    N        0.22756    0.25273    0.17749    1.000
    N1053    N        0.17327    0.04488    0.99793    1.000
    Si1054   Si       0.20034    0.08541    0.28807    1.000
    Si1055   Si       0.20745    0.08827    0.36105    1.000
    N1056    N        0.17668    0.04971    0.28304    1.000
    N1057    N        0.17552    0.11577    0.29880    1.000
    Si1058   Si       0.18823    0.02376    0.24912    1.000
    N1059    N        0.19695    0.13085    0.36836    1.000
    N1060    N        0.17112    0.06485    0.35246    1.000
    N1061    N        0.17111    0.18221    0.28850    1.000
    N1062    N        0.17895    0.24594    0.32613    1.000
    Si1063   Si       0.19578    0.20583    0.32109    1.000
    N1064    N        0.20356    0.19669    0.36474    1.000
    Si1065   Si       0.20076    0.24805    0.46269    1.000
    N1066    N        0.17987    0.08257    0.47090    1.000
    Si1067   Si       0.18681    0.12369    0.48821    1.000
    Si1068   Si       0.22145    0.07008    0.48243    1.000
    Si1069   Si       0.21762    0.17741    0.45049    1.000
    Si1070   Si       0.18136    0.21733    0.39819    1.000
    N1071    N        0.20315    0.21567    0.43533    1.000
    N1072    N        0.18128    0.15434    0.46019    1.000
    Si1073   Si       0.16822    0.03272    0.32338    1.000
    N1074    N        0.19980    0.03780    0.58488    1.000
    N1075    N        0.22399    0.06446    0.52430    1.000
    N1076    N        0.21866    0.10320    0.58634    1.000
    N1077    N        0.20260    0.13614    0.52724    1.000
    Si1078   Si       0.20515    0.20621    0.56175    1.000
    N1079    N        0.18785    0.22626    0.59686    1.000
    N1080    N        0.18147    0.24643    0.50185    1.000
    N1081    N        0.17063    0.19256    0.54258    1.000
    Si1082   Si       0.19937    0.02744    0.62797    1.000
    Si1083   Si       0.21050    0.09568    0.63100    1.000
    Si1084   Si       0.19020    0.03829    0.72165    1.000
    N1085    N        0.17294    0.07458    0.70269    1.000
    Si1086   Si       0.17339    0.10895    0.72901    1.000
    N1087    N        0.22622    0.05732    0.64234    1.000
    N1088    N        0.20327    0.21341    0.70480    1.000
    N1089    N        0.18717    0.14737    0.70704    1.000
    Si1090   Si       0.20253    0.15870    0.66388    1.000
    Si1091   Si       0.19975    0.18003    0.73251    1.000
    N1092    N        0.16950    0.17085    0.63897    1.000
    Si1093   Si       0.17123    0.24254    0.69953    1.000
    Si1094   Si       0.16328    0.14948    0.54218    1.000
    N1095    N        0.20374    0.03293    0.80604    1.000
    N1096    N        0.19889    0.11025    0.76572    1.000
    Si1097   Si       0.20062    0.05440    0.84419    1.000
    N1098    N        0.19882    0.09886    0.84154    1.000
    Si1099   Si       0.19420    0.12476    0.80776    1.000
    Si1100   Si       0.17270    0.01110    0.78975    1.000
    N1101    N        0.16795    0.04168    0.86927    1.000
    N1102    N        0.19153    0.22151    0.83291    1.000
    N1103    N        0.18258    0.19255    0.77108    1.000
    Si1104   Si       0.21334    0.19883    0.80219    1.000
    N1105    N        0.22059    0.15820    0.81901    1.000
    Si1106   Si       0.21397    0.22124    0.87029    1.000
    Si1107   Si       0.16661    0.24989    0.81585    1.000
    Si1108   Si       0.20645    0.11756    0.88150    1.000
    N1109    N        0.20448    0.08846    0.91334    1.000
    Si1110   Si       0.18097    0.05251    0.90917    1.000
    N1111    N        0.20817    0.01988    0.91821    1.000
    Si1112   Si       0.22152    0.10035    0.95346    1.000
    N1113    N        0.20025    0.20199    0.90623    1.000
    Si1114   Si       0.16865    0.12525    0.98105    1.000
    N1115    N        0.17192    0.14406    0.88238    1.000
    N1116    N        0.17272    0.21710    0.96465    1.000
    N1117    N        0.18871    0.14087    0.94710    1.000
    Si1118   Si       0.20042    0.23752    0.93524    1.000
    Si1119   Si       0.17437    0.16920    0.91813    1.000
    N1120    N        0.18789    0.30799    0.05473    1.000
    Si1121   Si       0.18370    0.28205    0.08999    1.000
    N1122    N        0.20704    0.37186    0.04518    1.000
    Si1123   Si       0.19461    0.35111    0.11490    1.000
    Si1124   Si       0.22130    0.33082    0.03710    1.000
    N1125    N        0.20347    0.30490    0.12009    1.000
    Si1126   Si       0.18271    0.39091    0.01509    1.000
    N1127    N        0.17958    0.43020    0.03415    1.000
    N1128    N        0.19959    0.41473    0.09923    1.000
    N1129    N        0.17572    0.47894    0.08387    1.000
    Si1130   Si       0.17484    0.45832    0.00126    1.000
    Si1131   Si       0.16875    0.43667    0.07658    1.000
    Si1132   Si       0.20187    0.48483    0.11744    1.000
    N1133    N        0.19232    0.31829    0.19001    1.000
    Si1134   Si       0.20313    0.36103    0.19473    1.000
    Si1135   Si       0.20342    0.28859    0.16070    1.000
    N1136    N        0.19386    0.37390    0.15374    1.000
    Si1137   Si       0.20386    0.41654    0.14362    1.000
    Si1138   Si       0.17011    0.46407    0.18696    1.000
    N1139    N        0.18132    0.38722    0.22271    1.000
    Si1140   Si       0.20016    0.42099    0.24467    1.000
    N1141    N        0.19046    0.45750    0.14932    1.000
    N1142    N        0.18343    0.45966    0.23177    1.000
    N1143    N        0.19729    0.31190    0.30466    1.000
    Si1144   Si       0.20420    0.27911    0.33586    1.000
    Si1145   Si       0.19944    0.34792    0.35725    1.000
    N1146    N        0.19596    0.30532    0.37293    1.000
    N1147    N        0.18844    0.41534    0.28618    1.000
    N1148    N        0.18489    0.42349    0.34906    1.000
    Si1149   Si       0.21859    0.41037    0.32014    1.000
    N1150    N        0.20173    0.49949    0.28667    1.000
    Si1151   Si       0.16827    0.48260    0.26585    1.000
    Si1152   Si       0.21961    0.31867    0.46667    1.000
    N1153    N        0.20489    0.36028    0.45917    1.000
    N1154    N        0.18984    0.28772    0.44990    1.000
    Si1155   Si       0.17352    0.37104    0.48743    1.000
    Si1156   Si       0.17163    0.29306    0.40794    1.000
    N1157    N        0.21737    0.37022    0.39040    1.000
    N1158    N        0.18599    0.49441    0.41711    1.000
    N1159    N        0.19966    0.42686    0.42349    1.000
    Si1160   Si       0.22162    0.38619    0.42980    1.000
    Si1161   Si       0.20491    0.46390    0.44420    1.000
    N1162    N        0.18360    0.46566    0.48177    1.000
    Si1163   Si       0.16987    0.42417    0.39030    1.000
    Si1164   Si       0.19418    0.36978    0.58408    1.000
    N1165    N        0.18471    0.28725    0.55592    1.000
    Si1166   Si       0.21153    0.26943    0.52523    1.000
    Si1167   Si       0.18144    0.26956    0.59640    1.000
    N1168    N        0.20009    0.30095    0.62090    1.000
    Si1169   Si       0.22306    0.48678    0.68419    1.000
    Si1170   Si       0.20090    0.44895    0.59277    1.000
    N1171    N        0.18085    0.40406    0.51489    1.000
    N1172    N        0.21139    0.40910    0.57371    1.000
    N1173    N        0.17596    0.46976    0.55923    1.000
    Si1174   Si       0.22168    0.40675    0.53050    1.000
    Si1175   Si       0.22103    0.47447    0.50341    1.000
    Si1176   Si       0.17424    0.51199    0.54524    1.000
    N1177    N        0.17897    0.36698    0.62577    1.000
    N1178    N        0.18943    0.27987    0.71234    1.000
    N1179    N        0.21372    0.33664    0.68134    1.000
    Si1180   Si       0.18280    0.32990    0.64966    1.000
    Si1181   Si       0.19684    0.36572    0.70894    1.000
    N1182    N        0.18238    0.47353    0.68859    1.000
    N1183    N        0.19130    0.40063    0.68115    1.000
    N1184    N        0.18467    0.43975    0.63110    1.000
    Si1185   Si       0.21919    0.42143    0.65356    1.000
    N1186    N        0.21547    0.31081    0.84310    1.000
    N1187    N        0.19104    0.27237    0.78778    1.000
    N1188    N        0.20097    0.32910    0.76976    1.000
    Si1189   Si       0.21604    0.37437    0.77644    1.000
    Si1190   Si       0.18023    0.29467    0.75349    1.000
    Si1191   Si       0.18737    0.29014    0.86870    1.000
    Si1192   Si       0.22212    0.30321    0.79929    1.000
    N1193    N        0.21130    0.42125    0.84276    1.000
    N1194    N        0.19135    0.47907    0.79991    1.000
    N1195    N        0.17882    0.39315    0.79029    1.000
    Si1196   Si       0.18321    0.50264    0.83528    1.000
    Si1197   Si       0.17302    0.40056    0.83318    1.000
    Si1198   Si       0.22077    0.44705    0.80932    1.000
    N1199    N        0.18997    0.27962    0.95515    1.000
    Si1200   Si       0.18007    0.35694    0.89331    1.000
    N1201    N        0.16905    0.31571    0.89933    1.000
    N1202    N        0.21400    0.26084    0.88844    1.000
    N1203    N        0.22219    0.32692    0.99504    1.000
    N1204    N        0.19195    0.48635    0.87268    1.000
    Si1205   Si       0.18258    0.40933    0.94602    1.000
    N1206    N        0.21749    0.46492    0.99143    1.000
    Si1207   Si       0.17770    0.50815    0.90867    1.000
    N1208    N        0.19320    0.42954    0.90867    1.000
    N1209    N        0.20923    0.39853    0.97922    1.000
    Si1210   Si       0.22431    0.41078    0.88348    1.000
    N1211    N        0.22308    0.36645    0.88784    1.000
    N1212    N        0.18758    0.54783    0.05025    1.000
    Si1213   Si       0.19579    0.52991    0.01329    1.000
    Si1214   Si       0.21394    0.55344    0.08700    1.000
    Si1215   Si       0.19175    0.62584    0.08712    1.000
    N1216    N        0.16987    0.61057    0.01013    1.000
    N1217    N        0.22481    0.59649    0.09026    1.000
    N1218    N        0.18807    0.66018    0.05920    1.000
    N1219    N        0.19381    0.70909    0.10746    1.000
    Si1220   Si       0.19207    0.70400    0.06496    1.000
    Si1221   Si       0.16854    0.65187    0.02006    1.000
    N1222    N        0.20192    0.52917    0.12187    1.000
    Si1223   Si       0.18569    0.61610    0.16113    1.000
    Si1224   Si       0.17770    0.53871    0.15990    1.000
    N1225    N        0.19729    0.56243    0.19407    1.000
    N1226    N        0.16360    0.57736    0.14490    1.000
    Si1227   Si       0.21938    0.67547    0.17403    1.000
    N1228    N        0.18556    0.64277    0.12618    1.000
    N1229    N        0.17824    0.69010    0.17165    1.000
    Si1230   Si       0.16630    0.68054    0.12934    1.000
    N1231    N        0.22576    0.63002    0.17342    1.000
    Si1232   Si       0.20086    0.60868    0.26623    1.000
    N1233    N        0.21812    0.51602    0.35154    1.000
    N1234    N        0.17052    0.58180    0.25363    1.000
    Si1235   Si       0.18282    0.51044    0.32359    1.000
    N1236    N        0.21066    0.71133    0.27258    1.000
    N1237    N        0.17983    0.64647    0.27158    1.000
    Si1238   Si       0.19770    0.67733    0.29534    1.000
    Si1239   Si       0.19658    0.66907    0.35704    1.000
    Si1240   Si       0.19742    0.75311    0.27852    1.000
    N1241    N        0.17094    0.68946    0.32839    1.000
    N1242    N        0.17045    0.75346    0.36597    1.000
    N1243    N        0.17733    0.63403    0.37357    1.000
    Si1244   Si       0.20500    0.59950    0.46936    1.000
    N1245    N        0.18016    0.56480    0.47983    1.000
    N1246    N        0.21476    0.61383    0.42970    1.000
    N1247    N        0.18136    0.56019    0.38838    1.000
    Si1248   Si       0.17938    0.60226    0.40383    1.000
    Si1249   Si       0.20389    0.52522    0.39153    1.000
    N1250    N        0.18968    0.63392    0.48916    1.000
    Si1251   Si       0.20618    0.69820    0.45424    1.000
    Si1252   Si       0.20429    0.73866    0.38822    1.000
    N1253    N        0.20686    0.73589    0.43233    1.000
    N1254    N        0.21665    0.69733    0.38135    1.000
    N1255    N        0.19467    0.57183    0.54845    1.000
    Si1256   Si       0.20950    0.55571    0.51252    1.000
    Si1257   Si       0.21588    0.57149    0.58686    1.000
    N1258    N        0.21190    0.51400    0.51966    1.000
    N1259    N        0.19296    0.57518    0.62490    1.000
    Si1260   Si       0.21735    0.73957    0.52409    1.000
    Si1261   Si       0.20333    0.66625    0.51818    1.000
    N1262    N        0.18278    0.74227    0.55036    1.000
    N1263    N        0.17483    0.70617    0.61047    1.000
    N1264    N        0.20841    0.70575    0.49775    1.000
    N1265    N        0.17130    0.67613    0.54461    1.000
    Si1266   Si       0.21208    0.54339    0.73037    1.000
    N1267    N        0.19766    0.55584    0.69096    1.000
    Si1268   Si       0.19810    0.54047    0.65105    1.000
    N1269    N        0.19156    0.62298    0.70307    1.000
    N1270    N        0.17186    0.51033    0.63399    1.000
    Si1271   Si       0.22135    0.59479    0.69520    1.000
    Si1272   Si       0.18267    0.68309    0.64420    1.000
    Si1273   Si       0.20687    0.66444    0.70859    1.000
    Si1274   Si       0.18850    0.73116    0.70706    1.000
    N1275    N        0.21425    0.68978    0.67379    1.000
    N1276    N        0.19490    0.64202    0.63057    1.000
    N1277    N        0.21033    0.74208    0.74391    1.000
    N1278    N        0.17729    0.69110    0.72874    1.000
    N1279    N        0.18434    0.54771    0.76413    1.000
    N1280    N        0.19989    0.54326    0.83642    1.000
    N1281    N        0.21230    0.60185    0.80537    1.000
    Si1282   Si       0.21113    0.55808    0.79778    1.000
    Si1283   Si       0.18605    0.56922    0.86866    1.000
    Si1284   Si       0.17116    0.61611    0.80962    1.000
    Si1285   Si       0.20093    0.68056    0.82608    1.000
    Si1286   Si       0.18952    0.71275    0.76701    1.000
    N1287    N        0.19373    0.70298    0.86226    1.000
    N1288    N        0.21758    0.69004    0.78700    1.000
    N1289    N        0.21578    0.59186    0.89123    1.000
    Si1290   Si       0.18172    0.59146    0.97208    1.000
    N1291    N        0.17314    0.54973    0.97922    1.000
    Si1292   Si       0.22115    0.61928    0.92562    1.000
    N1293    N        0.21422    0.51253    0.93171    1.000
    N1294    N        0.22283    0.60485    0.96669    1.000
    N1295    N        0.19316    0.67540    0.99208    1.000
    Si1296   Si       0.22153    0.67664    0.88558    1.000
    N1297    N        0.19837    0.65386    0.91279    1.000
    Si1298   Si       0.17291    0.70233    0.96274    1.000
    N1299    N        0.19397    0.72518    0.93171    1.000
    Si1300   Si       0.18232    0.73498    0.89161    1.000
    Si1301   Si       0.19999    0.78870    0.10926    1.000
    N1302    N        0.21425    0.77067    0.07437    1.000
    Si1303   Si       0.21313    0.85643    0.00691    1.000
    Si1304   Si       0.21135    0.79085    0.03706    1.000
    N1305    N        0.17063    0.85079    0.99752    1.000
    N1306    N        0.18543    0.89361    0.10222    1.000
    N1307    N        0.21000    0.95060    0.06737    1.000
    Si1308   Si       0.19092    0.93300    0.03145    1.000
    Si1309   Si       0.21357    0.92854    0.10448    1.000
    N1310    N        0.21213    0.89936    0.01328    1.000
    Si1311   Si       0.17539    0.00487    0.01496    1.000
    N1312    N        0.18288    0.96513    0.00065    1.000
    N1313    N        0.21045    0.82666    0.12761    1.000
    Si1314   Si       0.19196    0.86503    0.13687    1.000
    Si1315   Si       0.20887    0.86798    0.20528    1.000
    N1316    N        0.22001    0.76374    0.14062    1.000
    N1317    N        0.19860    0.77747    0.24180    1.000
    N1318    N        0.22433    0.82780    0.19459    1.000
    N1319    N        0.22588    0.88011    0.24332    1.000
    N1320    N        0.21731    0.95497    0.13809    1.000
    N1321    N        0.20955    0.89203    0.16668    1.000
    N1322    N        0.18157    0.92330    0.21404    1.000
    Si1323   Si       0.21146    0.93466    0.18104    1.000
    Si1324   Si       0.21275    0.99931    0.13839    1.000
    N1325    N        0.20558    0.97606    0.19791    1.000
    Si1326   Si       0.17248    0.96528    0.22427    1.000
    N1327    N        0.20322    0.86338    0.30901    1.000
    Si1328   Si       0.18284    0.78609    0.33947    1.000
    N1329    N        0.21515    0.77427    0.31260    1.000
    N1330    N        0.18733    0.82255    0.36351    1.000
    N1331    N        0.20217    0.00221    0.39783    1.000
    Si1332   Si       0.20094    0.89374    0.27719    1.000
    Si1333   Si       0.18422    0.96366    0.30347    1.000
    N1334    N        0.20954    0.92884    0.30187    1.000
    N1335    N        0.18333    0.98148    0.26220    1.000
    N1336    N        0.19595    0.00013    0.32447    1.000
    Si1337   Si       0.22121    0.99406    0.35878    1.000
    N1338    N        0.22147    0.95209    0.36827    1.000
    N1339    N        0.19369    0.86969    0.41246    1.000
    Si1340   Si       0.20052    0.77002    0.45666    1.000
    N1341    N        0.20858    0.80408    0.43020    1.000
    Si1342   Si       0.18139    0.82808    0.40564    1.000
    Si1343   Si       0.21664    0.96209    0.41118    1.000
    Si1344   Si       0.17713    0.89805    0.43996    1.000
    N1345    N        0.18274    0.89744    0.48412    1.000
    N1346    N        0.18562    0.93908    0.42945    1.000
    Si1347   Si       0.18362    0.85446    0.55242    1.000
    N1348    N        0.20329    0.81582    0.54896    1.000
    N1349    N        0.19808    0.78318    0.60939    1.000
    Si1350   Si       0.18095    0.78155    0.56856    1.000
    N1351    N        0.17086    0.84808    0.59566    1.000
    Si1352   Si       0.20329    0.82742    0.61683    1.000
    N1353    N        0.17631    0.00156    0.52873    1.000
    Si1354   Si       0.20888    0.97707    0.54986    1.000
    N1355    N        0.18658    0.95503    0.58003    1.000
    Si1356   Si       0.21307    0.90897    0.51595    1.000
    N1357    N        0.18808    0.89698    0.54915    1.000
    Si1358   Si       0.18179    0.91564    0.72991    1.000
    N1359    N        0.19923    0.84432    0.65589    1.000
    Si1360   Si       0.19489    0.84361    0.70009    1.000
    N1361    N        0.20591    0.75910    0.67797    1.000
    Si1362   Si       0.22158    0.76267    0.63816    1.000
    N1363    N        0.19456    0.88629    0.70238    1.000
    Si1364   Si       0.19091    0.88865    0.65852    1.000
    Si1365   Si       0.19053    0.95435    0.62373    1.000
    N1366    N        0.19135    0.99984    0.69782    1.000
    N1367    N        0.21702    0.98947    0.63175    1.000
    N1368    N        0.21180    0.92129    0.64187    1.000
    N1369    N        0.22001    0.77393    0.49737    1.000
    N1370    N        0.19938    0.80410    0.81039    1.000
    N1371    N        0.19773    0.85596    0.76439    1.000
    Si1372   Si       0.17580    0.79349    0.84784    1.000
    Si1373   Si       0.17351    0.82341    0.78029    1.000
    Si1374   Si       0.17039    0.88203    0.78757    1.000
    N1375    N        0.16700    0.83319    0.86603    1.000
    N1376    N        0.17948    0.96872    0.78899    1.000
    Si1377   Si       0.20794    0.93690    0.79313    1.000
    N1378    N        0.18698    0.90865    0.81692    1.000
    Si1379   Si       0.17342    0.91959    0.85759    1.000
    N1380    N        0.21783    0.92524    0.75272    1.000
    N1381    N        0.17270    0.96175    0.87045    1.000
    N1382    N        0.19611    0.77320    0.87839    1.000
    Si1383   Si       0.19383    0.85458    0.89512    1.000
    N1384    N        0.16868    0.85281    0.92910    1.000
    N1385    N        0.20919    0.78048    0.99391    1.000
    Si1386   Si       0.16625    0.77348    0.99287    1.000
    N1387    N        0.22497    0.95196    0.92194    1.000
    N1388    N        0.17256    0.91452    0.96196    1.000
    N1389    N        0.20009    0.89425    0.88047    1.000
    Si1390   Si       0.19280    0.97764    0.90669    1.000
    Si1391   Si       0.21559    0.91713    0.97190    1.000
    Si1392   Si       0.27081    0.07087    0.06915    1.000
    N1393    N        0.27487    0.09512    0.10677    1.000
    N1394    N        0.22895    0.07370    0.05212    1.000
    N1395    N        0.28247    0.03120    0.08662    1.000
    N1396    N        0.25321    0.14383    0.03549    1.000
    N1397    N        0.26383    0.21619    0.06181    1.000
    Si1398   Si       0.24359    0.18839    0.03210    1.000
    Si1399   Si       0.24364    0.23572    0.09677    1.000
    N1400    N        0.27773    0.06293    0.23009    1.000
    Si1401   Si       0.24529    0.10313    0.13879    1.000
    N1402    N        0.26149    0.09218    0.17814    1.000
    Si1403   Si       0.23709    0.07429    0.21190    1.000
    Si1404   Si       0.28202    0.01813    0.12969    1.000
    N1405    N        0.24792    0.01656    0.15772    1.000
    N1406    N        0.25906    0.18413    0.18769    1.000
    Si1407   Si       0.26047    0.22908    0.19019    1.000
    Si1408   Si       0.23094    0.17760    0.15463    1.000
    N1409    N        0.25780    0.23162    0.23429    1.000
    N1410    N        0.24736    0.20536    0.12702    1.000
    Si1411   Si       0.26080    0.05196    0.32895    1.000
    Si1412   Si       0.26840    0.08378    0.26702    1.000
    N1413    N        0.27416    0.04365    0.28819    1.000
    N1414    N        0.22671    0.09291    0.25408    1.000
    N1415    N        0.22627    0.07828    0.32340    1.000
    N1416    N        0.25868    0.01132    0.34516    1.000
    N1417    N        0.27733    0.17334    0.26149    1.000
    N1418    N        0.23624    0.20948    0.30761    1.000
    Si1419   Si       0.26392    0.23398    0.33244    1.000
    Si1420   Si       0.26058    0.21093    0.27353    1.000
    N1421    N        0.26522    0.15036    0.35621    1.000
    Si1422   Si       0.22829    0.16200    0.37294    1.000
    Si1423   Si       0.27710    0.07304    0.39392    1.000
    N1424    N        0.23293    0.08258    0.39437    1.000
    Si1425   Si       0.24264    0.11236    0.42856    1.000
    Si1426   Si       0.26953    0.01388    0.43911    1.000
    N1427    N        0.24181    0.04016    0.45909    1.000
    N1428    N        0.23521    0.11151    0.47207    1.000
    N1429    N        0.24311    0.25228    0.47612    1.000
    N1430    N        0.23585    0.15526    0.41757    1.000
    N1431    N        0.23748    0.18144    0.48750    1.000
    Si1432   Si       0.25889    0.14067    0.49597    1.000
    N1433    N        0.27281    0.05997    0.56911    1.000
    N1434    N        0.26893    0.12839    0.53590    1.000
    Si1435   Si       0.22767    0.06477    0.56663    1.000
    Si1436   Si       0.23065    0.13644    0.56012    1.000
    Si1437   Si       0.28356    0.01838    0.56394    1.000
    Si1438   Si       0.27011    0.24336    0.56940    1.000
    Si1439   Si       0.25523    0.18009    0.61330    1.000
    N1440    N        0.23638    0.23502    0.54164    1.000
    Si1441   Si       0.25268    0.21849    0.50373    1.000
    N1442    N        0.22931    0.17415    0.58032    1.000
    N1443    N        0.28224    0.14483    0.61746    1.000
    N1444    N        0.28324    0.21461    0.59794    1.000
    N1445    N        0.22608    0.05118    0.74129    1.000
    Si1446   Si       0.27290    0.12149    0.65496    1.000
    N1447    N        0.26898    0.10674    0.73993    1.000
    N1448    N        0.25587    0.02067    0.69088    1.000
    Si1449   Si       0.26038    0.02605    0.73366    1.000
    Si1450   Si       0.26448    0.04261    0.65465    1.000
    N1451    N        0.23058    0.12442    0.65499    1.000
    N1452    N        0.24228    0.17070    0.73525    1.000
    N1453    N        0.28130    0.01143    0.62872    1.000
    N1454    N        0.23281    0.18891    0.64907    1.000
    Si1455   Si       0.26592    0.20753    0.74554    1.000
    N1456    N        0.27475    0.21843    0.70214    1.000
    Si1457   Si       0.23774    0.21934    0.67880    1.000
    Si1458   Si       0.27891    0.14764    0.72871    1.000
    N1459    N        0.25637    0.07666    0.79738    1.000
    Si1460   Si       0.24564    0.03779    0.80922    1.000
    N1461    N        0.24278    0.04241    0.85267    1.000
    Si1462   Si       0.23645    0.08835    0.76063    1.000
    Si1463   Si       0.28074    0.05079    0.87007    1.000
    N1464    N        0.24210    0.24412    0.94253    1.000
    Si1465   Si       0.27275    0.24776    0.79627    1.000
    Si1466   Si       0.25660    0.16211    0.84447    1.000
    N1467    N        0.24649    0.21848    0.78242    1.000
    N1468    N        0.25540    0.20623    0.85656    1.000
    Si1469   Si       0.24773    0.03209    0.93829    1.000
    N1470    N        0.25932    0.11925    0.94664    1.000
    N1471    N        0.27079    0.06028    0.91430    1.000
    N1472    N        0.23905    0.05877    0.97202    1.000
    Si1473   Si       0.26362    0.23255    0.97982    1.000
    N1474    N        0.24470    0.13949    0.87900    1.000
    Si1475   Si       0.27199    0.15620    0.96744    1.000
    Si1476   Si       0.27551    0.13907    0.90839    1.000
    N1477    N        0.25589    0.18979    0.98948    1.000
    N1478    N        0.27391    0.00794    0.79800    1.000
    N1479    N        0.25852    0.31449    0.05213    1.000
    Si1480   Si       0.25746    0.31592    0.09859    1.000
    N1481    N        0.26610    0.27193    0.11022    1.000
    N1482    N        0.23598    0.35659    0.09832    1.000
    Si1483   Si       0.28166    0.28995    0.02512    1.000
    N1484    N        0.25199    0.26700    0.00102    1.000
    N1485    N        0.25482    0.41553    0.03474    1.000
    N1486    N        0.26484    0.41319    0.09933    1.000
    Si1487   Si       0.23170    0.39639    0.07408    1.000
    N1488    N        0.24474    0.47617    0.11481    1.000
    Si1489   Si       0.26913    0.50603    0.09559    1.000
    N1490    N        0.24524    0.35995    0.20541    1.000
    Si1491   Si       0.27439    0.32922    0.21832    1.000
    N1492    N        0.24301    0.41962    0.23742    1.000
    N1493    N        0.24290    0.42036    0.16451    1.000
    Si1494   Si       0.26628    0.44443    0.13163    1.000
    Si1495   Si       0.25768    0.40205    0.20125    1.000
    Si1496   Si       0.23677    0.32113    0.28735    1.000
    N1497    N        0.24511    0.27189    0.33945    1.000
    N1498    N        0.27541    0.32168    0.30607    1.000
    Si1499   Si       0.27802    0.30061    0.34247    1.000
    Si1500   Si       0.25397    0.36910    0.36603    1.000
    Si1501   Si       0.27832    0.26599    0.25332    1.000
    N1502    N        0.22738    0.36890    0.33077    1.000
    N1503    N        0.25321    0.30155    0.24864    1.000
    Si1504   Si       0.26907    0.43545    0.26740    1.000
    N1505    N        0.25386    0.43099    0.30916    1.000
    N1506    N        0.27068    0.47716    0.25552    1.000
    Si1507   Si       0.28061    0.43949    0.34408    1.000
    N1508    N        0.27726    0.48085    0.36339    1.000
    Si1509   Si       0.24319    0.50727    0.27215    1.000
    N1510    N        0.27414    0.33097    0.37515    1.000
    Si1511   Si       0.27452    0.27252    0.45471    1.000
    N1512    N        0.25595    0.31242    0.44702    1.000
    Si1513   Si       0.27758    0.38514    0.48018    1.000
    N1514    N        0.26376    0.39089    0.44044    1.000
    N1515    N        0.27775    0.40405    0.37166    1.000
    N1516    N        0.24265    0.46838    0.46525    1.000
    Si1517   Si       0.28361    0.31335    0.41158    1.000
    N1518    N        0.28357    0.26871    0.40956    1.000
    Si1519   Si       0.24816    0.33796    0.53487    1.000
    N1520    N        0.25667    0.27499    0.59706    1.000
    Si1521   Si       0.23824    0.31368    0.60330    1.000
    N1522    N        0.24946    0.37853    0.51416    1.000
    N1523    N        0.22702    0.30973    0.51007    1.000
    N1524    N        0.22617    0.34262    0.57309    1.000
    Si1525   Si       0.26738    0.45369    0.56381    1.000
    N1526    N        0.23954    0.46596    0.59655    1.000
    N1527    N        0.23989    0.44709    0.53194    1.000
    Si1528   Si       0.25071    0.50363    0.61456    1.000
    N1529    N        0.25637    0.29190    0.71759    1.000
    Si1530   Si       0.25278    0.35380    0.66357    1.000
    N1531    N        0.26443    0.31926    0.63949    1.000
    Si1532   Si       0.27003    0.27562    0.64028    1.000
    N1533    N        0.22846    0.37762    0.73519    1.000
    N1534    N        0.27979    0.35815    0.69628    1.000
    Si1535   Si       0.27289    0.38146    0.73189    1.000
    N1536    N        0.23677    0.25870    0.66605    1.000
    N1537    N        0.24790    0.39098    0.63845    1.000
    Si1538   Si       0.28139    0.50343    0.72591    1.000
    N1539    N        0.28011    0.42489    0.72523    1.000
    N1540    N        0.24477    0.45043    0.67158    1.000
    Si1541   Si       0.22467    0.29191    0.69021    1.000
    N1542    N        0.23768    0.50895    0.71931    1.000
    N1543    N        0.26097    0.29033    0.78628    1.000
    N1544    N        0.24361    0.36186    0.81107    1.000
    Si1545   Si       0.23890    0.34611    0.85171    1.000
    N1546    N        0.25343    0.47501    0.82449    1.000
    N1547    N        0.24659    0.42133    0.78335    1.000
    Si1548   Si       0.27231    0.46199    0.86032    1.000
    Si1549   Si       0.27897    0.44423    0.76402    1.000
    Si1550   Si       0.27618    0.39216    0.80250    1.000
    Si1551   Si       0.27068    0.50861    0.80015    1.000
    N1552    N        0.28362    0.48678    0.76673    1.000
    N1553    N        0.27665    0.33443    0.87180    1.000
    Si1554   Si       0.25967    0.34607    0.91065    1.000
    Si1555   Si       0.24846    0.27299    0.91052    1.000
    N1556    N        0.24966    0.31089    0.93331    1.000
    N1557    N        0.28436    0.26663    0.88844    1.000
    Si1558   Si       0.22975    0.29210    0.96960    1.000
    N1559    N        0.26562    0.42782    0.88409    1.000
    Si1560   Si       0.23308    0.49956    0.97087    1.000
    N1561    N        0.27046    0.49799    0.95115    1.000
    Si1562   Si       0.23937    0.42818    0.99546    1.000
    N1563    N        0.27275    0.49760    0.88448    1.000
    N1564    N        0.27587    0.43208    0.96997    1.000
    N1565    N        0.25690    0.59387    0.03145    1.000
    N1566    N        0.25012    0.53468    0.07180    1.000
    Si1567   Si       0.26264    0.61067    0.07265    1.000
    Si1568   Si       0.26101    0.54931    0.03169    1.000
    N1569    N        0.23706    0.52922    0.00269    1.000
    N1570    N        0.26529    0.73647    0.10131    1.000
    N1571    N        0.26642    0.65368    0.07766    1.000
    Si1572   Si       0.25391    0.74677    0.05998    1.000
    N1573    N        0.25738    0.65866    0.01209    1.000
    Si1574   Si       0.23147    0.69399    0.00369    1.000
    Si1575   Si       0.27533    0.66813    0.11731    1.000
    N1576    N        0.22654    0.71560    0.04217    1.000
    Si1577   Si       0.25097    0.64483    0.22844    1.000
    N1578    N        0.23246    0.60580    0.23518    1.000
    N1579    N        0.26303    0.57312    0.17942    1.000
    Si1580   Si       0.23486    0.56957    0.21257    1.000
    Si1581   Si       0.26507    0.61500    0.17166    1.000
    N1582    N        0.24851    0.53393    0.23612    1.000
    N1583    N        0.24624    0.68981    0.14458    1.000
    Si1584   Si       0.23074    0.72535    0.12478    1.000
    N1585    N        0.23655    0.68425    0.21355    1.000
    N1586    N        0.28602    0.63002    0.13586    1.000
    N1587    N        0.26887    0.51907    0.30436    1.000
    Si1588   Si       0.25967    0.51564    0.34651    1.000
    N1589    N        0.27775    0.55310    0.36404    1.000
    N1590    N        0.22827    0.60185    0.30012    1.000
    Si1591   Si       0.25349    0.63519    0.30400    1.000
    N1592    N        0.22743    0.66131    0.32600    1.000
    N1593    N        0.25957    0.66005    0.26810    1.000
    Si1594   Si       0.24788    0.70183    0.25210    1.000
    N1595    N        0.27638    0.73277    0.25526    1.000
    N1596    N        0.23563    0.53880    0.41657    1.000
    Si1597   Si       0.25491    0.63084    0.43087    1.000
    Si1598   Si       0.27547    0.55395    0.40679    1.000
    N1599    N        0.24016    0.57904    0.49168    1.000
    N1600    N        0.27797    0.59026    0.42914    1.000
    Si1601   Si       0.27671    0.59035    0.47445    1.000
    N1602    N        0.27448    0.63320    0.47220    1.000
    Si1603   Si       0.28220    0.67634    0.46780    1.000
    N1604    N        0.26565    0.64728    0.39196    1.000
    N1605    N        0.24453    0.67883    0.44336    1.000
    Si1606   Si       0.25384    0.68777    0.40056    1.000
    N1607    N        0.24307    0.60665    0.59153    1.000
    N1608    N        0.23775    0.53287    0.58393    1.000
    Si1609   Si       0.26846    0.74038    0.58657    1.000
    N1610    N        0.24009    0.65735    0.53637    1.000
    Si1611   Si       0.27808    0.67361    0.54316    1.000
    N1612    N        0.28044    0.70085    0.57528    1.000
    N1613    N        0.24628    0.75895    0.55467    1.000
    N1614    N        0.24076    0.57916    0.73160    1.000
    N1615    N        0.24931    0.60512    0.66411    1.000
    Si1616   Si       0.23578    0.62721    0.62854    1.000
    N1617    N        0.23399    0.51497    0.65266    1.000
    Si1618   Si       0.28027    0.52873    0.57077    1.000
    N1619    N        0.26144    0.66186    0.62752    1.000
    Si1620   Si       0.25312    0.69636    0.65278    1.000
    N1621    N        0.24646    0.65632    0.72707    1.000
    N1622    N        0.24589    0.73004    0.62519    1.000
    N1623    N        0.24909    0.54359    0.78547    1.000
    N1624    N        0.26955    0.59435    0.84323    1.000
    Si1625   Si       0.24621    0.62568    0.82200    1.000
    Si1626   Si       0.27348    0.56730    0.75725    1.000
    N1627    N        0.26799    0.64386    0.79133    1.000
    Si1628   Si       0.25200    0.67609    0.76612    1.000
    Si1629   Si       0.25111    0.74830    0.75407    1.000
    N1630    N        0.27639    0.71352    0.75061    1.000
    N1631    N        0.22865    0.65521    0.84795    1.000
    Si1632   Si       0.25918    0.59332    0.88470    1.000
    N1633    N        0.26926    0.55753    0.90584    1.000
    Si1634   Si       0.25389    0.51879    0.91580    1.000
    N1635    N        0.26220    0.62809    0.91261    1.000
    Si1636   Si       0.25537    0.61859    0.99506    1.000
    Si1637   Si       0.23737    0.73182    0.93509    1.000
    N1638    N        0.25171    0.70143    0.90483    1.000
    N1639    N        0.24946    0.71836    0.97430    1.000
    Si1640   Si       0.26344    0.82978    0.05540    1.000
    N1641    N        0.26346    0.78643    0.03931    1.000
    N1642    N        0.22116    0.83310    0.04301    1.000
    Si1643   Si       0.26264    0.94660    0.14155    1.000
    Si1644   Si       0.22894    0.98788    0.06026    1.000
    N1645    N        0.25780    0.91726    0.10779    1.000
    N1646    N        0.26907    0.97302    0.04962    1.000
    Si1647   Si       0.27707    0.94118    0.01958    1.000
    Si1648   Si       0.23499    0.79909    0.16026    1.000
    N1649    N        0.25222    0.77320    0.19491    1.000
    Si1650   Si       0.23375    0.79649    0.22499    1.000
    N1651    N        0.27852    0.80829    0.14942    1.000
    N1652    N        0.25756    0.93526    0.18276    1.000
    N1653    N        0.27360    0.99046    0.22207    1.000
    Si1654   Si       0.24004    0.00389    0.19922    1.000
    N1655    N        0.26134    0.82198    0.33717    1.000
    Si1656   Si       0.25313    0.77842    0.33323    1.000
    Si1657   Si       0.24303    0.85759    0.32455    1.000
    N1658    N        0.27146    0.87317    0.29441    1.000
    N1659    N        0.26046    0.81014    0.25608    1.000
    N1660    N        0.24242    0.88692    0.35637    1.000
    Si1661   Si       0.26747    0.88467    0.25165    1.000
    Si1662   Si       0.23486    0.92383    0.33818    1.000
    N1663    N        0.27362    0.94142    0.32825    1.000
    N1664    N        0.28159    0.92704    0.25239    1.000
    N1665    N        0.23788    0.76370    0.37269    1.000
    N1666    N        0.25140    0.84155    0.46990    1.000
    Si1667   Si       0.24927    0.81730    0.43700    1.000
    N1668    N        0.25946    0.84081    0.40166    1.000
    N1669    N        0.27301    0.78248    0.44003    1.000
    Si1670   Si       0.23539    0.87774    0.39838    1.000
    Si1671   Si       0.27269    0.76279    0.40048    1.000
    Si1672   Si       0.27686    0.94226    0.44268    1.000
    N1673    N        0.25565    0.90819    0.42328    1.000
    N1674    N        0.25187    0.97584    0.43133    1.000
    N1675    N        0.28384    0.94755    0.48597    1.000
    N1676    N        0.24224    0.84048    0.59863    1.000
    N1677    N        0.27370    0.82445    0.53327    1.000
    Si1678   Si       0.25991    0.85714    0.56395    1.000
    Si1679   Si       0.23946    0.79687    0.53138    1.000
    Si1680   Si       0.27063    0.85899    0.50276    1.000
    N1681    N        0.24733    0.88260    0.52911    1.000
    Si1682   Si       0.26541    0.96696    0.52340    1.000
    N1683    N        0.24883    0.98759    0.56753    1.000
    Si1684   Si       0.25393    0.98207    0.61115    1.000
    N1685    N        0.27184    0.94210    0.61619    1.000
    Si1686   Si       0.27571    0.85790    0.62463    1.000
    N1687    N        0.25323    0.78979    0.65344    1.000
    Si1688   Si       0.23660    0.78633    0.69369    1.000
    N1689    N        0.26929    0.76765    0.71916    1.000
    N1690    N        0.22858    0.82250    0.71725    1.000
    N1691    N        0.26363    0.88414    0.73108    1.000
    Si1692   Si       0.23286    0.98339    0.69838    1.000
    N1693    N        0.27281    0.88509    0.65813    1.000
    Si1694   Si       0.25571    0.92787    0.73133    1.000
    Si1695   Si       0.25467    0.92425    0.65297    1.000
    N1696    N        0.25349    0.94465    0.69038    1.000
    N1697    N        0.24543    0.98710    0.74151    1.000
    N1698    N        0.22572    0.95061    0.51832    1.000
    N1699    N        0.25404    0.80171    0.85286    1.000
    Si1700   Si       0.24231    0.80061    0.80944    1.000
    N1701    N        0.25805    0.83420    0.78533    1.000
    Si1702   Si       0.23923    0.85023    0.74786    1.000
    N1703    N        0.26056    0.76443    0.79387    1.000
    N1704    N        0.24381    0.94866    0.81130    1.000
    Si1705   Si       0.26349    0.97071    0.77806    1.000
    Si1706   Si       0.27094    0.92821    0.83798    1.000
    N1707    N        0.24886    0.94199    0.98523    1.000
    Si1708   Si       0.23986    0.79501    0.96756    1.000
    Si1709   Si       0.25214    0.85608    0.93896    1.000
    N1710    N        0.24006    0.77586    0.92867    1.000
    N1711    N        0.23752    0.83683    0.97587    1.000
    Si1712   Si       0.23117    0.79599    0.89115    1.000
    N1713    N        0.23119    0.83709    0.90513    1.000
    Si1714   Si       0.23073    0.91390    0.90153    1.000
    N1715    N        0.23377    0.89401    0.94083    1.000
    N1716    N        0.26880    0.91439    0.88002    1.000
    Si1717   Si       0.25986    0.95402    0.94521    1.000
    N1718    N        0.27189    0.99602    0.93742    1.000
    Si1719   Si       0.31789    0.06035    0.00943    1.000
    N1720    N        0.31027    0.01933    0.02291    1.000
    N1721    N        0.29033    0.08499    0.03110    1.000
    Si1722   Si       0.29416    0.12965    0.02698    1.000
    N1723    N        0.32874    0.13420    0.05300    1.000
    Si1724   Si       0.30557    0.23046    0.06396    1.000
    N1725    N        0.32249    0.22891    0.10480    1.000
    N1726    N        0.32467    0.20358    0.03699    1.000
    Si1727   Si       0.31346    0.08701    0.12629    1.000
    N1728    N        0.30939    0.04740    0.14701    1.000
    Si1729   Si       0.30160    0.09362    0.19853    1.000
    N1730    N        0.32458    0.11478    0.15702    1.000
    N1731    N        0.29890    0.12700    0.22655    1.000
    N1732    N        0.33650    0.06923    0.20415    1.000
    Si1733   Si       0.28529    0.16768    0.21714    1.000
    Si1734   Si       0.33203    0.21272    0.17647    1.000
    N1735    N        0.29846    0.24163    0.17203    1.000
    N1736    N        0.32238    0.18988    0.21229    1.000
    Si1737   Si       0.28922    0.02236    0.25144    1.000
    N1738    N        0.33145    0.02444    0.25708    1.000
    Si1739   Si       0.29172    0.11923    0.33655    1.000
    N1740    N        0.28891    0.11131    0.29354    1.000
    N1741    N        0.28608    0.07906    0.35300    1.000
    Si1742   Si       0.34192    0.09028    0.48433    1.000
    N1743    N        0.32704    0.14401    0.34956    1.000
    Si1744   Si       0.30320    0.13985    0.26767    1.000
    N1745    N        0.29206    0.21472    0.35887    1.000
    N1746    N        0.28378    0.24605    0.29422    1.000
    Si1747   Si       0.29984    0.17332    0.36907    1.000
    Si1748   Si       0.33159    0.03175    0.42947    1.000
    N1749    N        0.29272    0.03668    0.41050    1.000
    N1750    N        0.28410    0.10620    0.42299    1.000
    Si1751   Si       0.30952    0.24716    0.38243    1.000
    N1752    N        0.31382    0.17114    0.41032    1.000
    Si1753   Si       0.32190    0.18207    0.49176    1.000
    Si1754   Si       0.30775    0.13805    0.43805    1.000
    N1755    N        0.29490    0.15355    0.47745    1.000
    Si1756   Si       0.31344    0.03208    0.49648    1.000
    N1757    N        0.32683    0.10460    0.57250    1.000
    N1758    N        0.30724    0.07468    0.51115    1.000
    Si1759   Si       0.29216    0.09338    0.54653    1.000
    N1760    N        0.32191    0.01029    0.58041    1.000
    Si1761   Si       0.32453    0.13406    0.60332    1.000
    N1762    N        0.28411    0.00793    0.52128    1.000
    Si1763   Si       0.32525    0.20730    0.61031    1.000
    Si1764   Si       0.31682    0.25192    0.50935    1.000
    N1765    N        0.29661    0.21419    0.50389    1.000
    N1766    N        0.33812    0.17298    0.58724    1.000
    N1767    N        0.29240    0.14373    0.68705    1.000
    Si1768   Si       0.32459    0.01175    0.62518    1.000
    N1769    N        0.32994    0.08828    0.71044    1.000
    Si1770   Si       0.33122    0.08362    0.66642    1.000
    N1771    N        0.33649    0.12053    0.64308    1.000
    Si1772   Si       0.30426    0.08258    0.74599    1.000
    N1773    N        0.30083    0.03846    0.74273    1.000
    Si1774   Si       0.31336    0.22512    0.68080    1.000
    Si1775   Si       0.33088    0.15654    0.66980    1.000
    N1776    N        0.32536    0.19499    0.65138    1.000
    N1777    N        0.28652    0.08014    0.65724    1.000
    N1778    N        0.30954    0.26021    0.65585    1.000
    Si1779   Si       0.33913    0.01381    0.74937    1.000
    N1780    N        0.32006    0.10387    0.78218    1.000
    N1781    N        0.30384    0.08192    0.85187    1.000
    N1782    N        0.30757    0.01970    0.85787    1.000
    Si1783   Si       0.28887    0.09959    0.81492    1.000
    N1784    N        0.28622    0.14316    0.81736    1.000
    Si1785   Si       0.28875    0.23000    0.86327    1.000
    N1786    N        0.30342    0.25001    0.82626    1.000
    Si1787   Si       0.31666    0.14829    0.78715    1.000
    N1788    N        0.29676    0.24447    0.75880    1.000
    N1789    N        0.30416    0.17466    0.75462    1.000
    Si1790   Si       0.32756    0.21274    0.75439    1.000
    Si1791   Si       0.29111    0.08866    0.93895    1.000
    Si1792   Si       0.33553    0.08886    0.88320    1.000
    N1793    N        0.31111    0.11354    0.90878    1.000
    N1794    N        0.31573    0.06787    0.96723    1.000
    N1795    N        0.30896    0.14385    0.98637    1.000
    N1796    N        0.32325    0.22019    0.89007    1.000
    N1797    N        0.28621    0.17492    0.92923    1.000
    N1798    N        0.30425    0.23277    0.96366    1.000
    Si1799   Si       0.31614    0.20601    0.93152    1.000
    N1800    N        0.30612    0.36917    0.06519    1.000
    N1801    N        0.31168    0.27012    0.05018    1.000
    Si1802   Si       0.30359    0.25799    0.12985    1.000
    Si1803   Si       0.29032    0.37733    0.10484    1.000
    Si1804   Si       0.29582    0.39670    0.03265    1.000
    N1805    N        0.30444    0.48686    0.07817    1.000
    Si1806   Si       0.32280    0.47250    0.03902    1.000
    N1807    N        0.32446    0.42807    0.03900    1.000
    N1808    N        0.31714    0.48621    0.99754    1.000
    N1809    N        0.28935    0.33714    0.12293    1.000
    Si1810   Si       0.33009    0.27891    0.19121    1.000
    N1811    N        0.33428    0.28757    0.14264    1.000
    Si1812   Si       0.31850    0.32798    0.15295    1.000
    N1813    N        0.29700    0.31139    0.18677    1.000
    N1814    N        0.31837    0.26912    0.23571    1.000
    Si1815   Si       0.32109    0.38802    0.23473    1.000
    N1816    N        0.32402    0.39626    0.12763    1.000
    N1817    N        0.30094    0.39878    0.19771    1.000
    Si1818   Si       0.32309    0.41677    0.16537    1.000
    Si1819   Si       0.32403    0.48543    0.17263    1.000
    N1820    N        0.30182    0.45374    0.15394    1.000
    N1821    N        0.30142    0.34961    0.24747    1.000
    Si1822   Si       0.31214    0.33661    0.28629    1.000
    N1823    N        0.31190    0.27399    0.34625    1.000
    N1824    N        0.33238    0.36800    0.30862    1.000
    Si1825   Si       0.32370    0.26311    0.30703    1.000
    N1826    N        0.34048    0.30007    0.28994    1.000
    N1827    N        0.29855    0.42206    0.48865    1.000
    N1828    N        0.32067    0.43918    0.32898    1.000
    N1829    N        0.30846    0.41832    0.26456    1.000
    Si1830   Si       0.33351    0.41026    0.29840    1.000
    Si1831   Si       0.28514    0.45859    0.46730    1.000
    Si1832   Si       0.29336    0.40794    0.41199    1.000
    N1833    N        0.30803    0.35082    0.48551    1.000
    Si1834   Si       0.32922    0.31883    0.46431    1.000
    N1835    N        0.31019    0.28127    0.47622    1.000
    N1836    N        0.32411    0.32560    0.42096    1.000
    N1837    N        0.33534    0.39570    0.41075    1.000
    Si1838   Si       0.30073    0.48593    0.40009    1.000
    N1839    N        0.29449    0.45099    0.42412    1.000
    N1840    N        0.30805    0.49272    0.48138    1.000
    Si1841   Si       0.31938    0.34706    0.52696    1.000
    Si1842   Si       0.31620    0.29955    0.56538    1.000
    N1843    N        0.31892    0.37612    0.61086    1.000
    N1844    N        0.33127    0.29925    0.60607    1.000
    N1845    N        0.28865    0.33045    0.55040    1.000
    N1846    N        0.30153    0.26364    0.54664    1.000
    Si1847   Si       0.34168    0.34161    0.62123    1.000
    N1848    N        0.33226    0.38643    0.53903    1.000
    Si1849   Si       0.32223    0.48980    0.52221    1.000
    N1850    N        0.29237    0.42600    0.58565    1.000
    Si1851   Si       0.32910    0.40512    0.57830    1.000
    Si1852   Si       0.33696    0.41541    0.50736    1.000
    N1853    N        0.28853    0.48884    0.54998    1.000
    N1854    N        0.31569    0.31387    0.73907    1.000
    Si1855   Si       0.32010    0.34106    0.70249    1.000
    N1856    N        0.34000    0.38105    0.71393    1.000
    Si1857   Si       0.28314    0.44480    0.68603    1.000
    N1858    N        0.30207    0.48286    0.69453    1.000
    Si1859   Si       0.28774    0.40592    0.62464    1.000
    N1860    N        0.30760    0.41860    0.66160    1.000
    Si1861   Si       0.28504    0.28573    0.74947    1.000
    N1862    N        0.31659    0.32194    0.81339    1.000
    Si1863   Si       0.31227    0.34446    0.84898    1.000
    Si1864   Si       0.32311    0.33939    0.77512    1.000
    Si1865   Si       0.33204    0.28264    0.82425    1.000
    N1866    N        0.29154    0.36850    0.76858    1.000
    N1867    N        0.29560    0.38604    0.84258    1.000
    Si1868   Si       0.29614    0.39496    0.96066    1.000
    N1869    N        0.31471    0.46769    0.84795    1.000
    N1870    N        0.30841    0.42955    0.79146    1.000
    Si1871   Si       0.33608    0.44677    0.81785    1.000
    Si1872   Si       0.33074    0.26790    0.97345    1.000
    Si1873   Si       0.32683    0.26589    0.89556    1.000
    N1874    N        0.30806    0.30227    0.99138    1.000
    N1875    N        0.28651    0.37806    0.92219    1.000
    N1876    N        0.30375    0.37328    0.99789    1.000
    N1877    N        0.33294    0.47436    0.92905    1.000
    Si1878   Si       0.29813    0.39891    0.88364    1.000
    N1879    N        0.33895    0.41301    0.88805    1.000
    Si1880   Si       0.30112    0.46847    0.96060    1.000
    N1881    N        0.33642    0.41273    0.95273    1.000
    Si1882   Si       0.33187    0.33873    0.99964    1.000
    N1883    N        0.30283    0.59324    0.08359    1.000
    N1884    N        0.30422    0.54431    0.02812    1.000
    Si1885   Si       0.32743    0.56828    0.05565    1.000
    Si1886   Si       0.32955    0.62688    0.00489    1.000
    Si1887   Si       0.32848    0.51567    0.10619    1.000
    Si1888   Si       0.28584    0.50912    0.22766    1.000
    N1889    N        0.29292    0.71830    0.04090    1.000
    N1890    N        0.32240    0.65844    0.03423    1.000
    Si1891   Si       0.33102    0.73987    0.04365    1.000
    Si1892   Si       0.30732    0.73780    0.11364    1.000
    N1893    N        0.31379    0.69381    0.11230    1.000
    N1894    N        0.33203    0.75818    0.08286    1.000
    Si1895   Si       0.31870    0.60628    0.12069    1.000
    N1896    N        0.29204    0.53027    0.12350    1.000
    Si1897   Si       0.29591    0.54953    0.16172    1.000
    N1898    N        0.32885    0.57709    0.15266    1.000
    N1899    N        0.29788    0.51483    0.18737    1.000
    N1900    N        0.28637    0.63694    0.20488    1.000
    N1901    N        0.31455    0.74735    0.15739    1.000
    Si1902   Si       0.32695    0.65126    0.19950    1.000
    N1903    N        0.34036    0.68174    0.17138    1.000
    Si1904   Si       0.28429    0.67621    0.04212    1.000
    N1905    N        0.32331    0.56256    0.31364    1.000
    Si1906   Si       0.31094    0.52492    0.29486    1.000
    Si1907   Si       0.30122    0.58407    0.34340    1.000
    N1908    N        0.31956    0.52451    0.25321    1.000
    N1909    N        0.28634    0.62284    0.32870    1.000
    Si1910   Si       0.30811    0.74595    0.28438    1.000
    N1911    N        0.32391    0.67642    0.36344    1.000
    N1912    N        0.33235    0.70956    0.29494    1.000
    Si1913   Si       0.29984    0.64148    0.36545    1.000
    Si1914   Si       0.32328    0.70111    0.39888    1.000
    N1915    N        0.32411    0.60524    0.37569    1.000
    N1916    N        0.30078    0.52287    0.42230    1.000
    Si1917   Si       0.32135    0.52726    0.46030    1.000
    N1918    N        0.30711    0.56122    0.48349    1.000
    N1919    N        0.31423    0.67873    0.43865    1.000
    N1920    N        0.28481    0.72065    0.39986    1.000
    N1921    N        0.29379    0.56657    0.55614    1.000
    Si1922   Si       0.32431    0.56481    0.52508    1.000
    N1923    N        0.29284    0.51711    0.61241    1.000
    N1924    N        0.30494    0.60362    0.61889    1.000
    Si1925   Si       0.28580    0.60384    0.57767    1.000
    N1926    N        0.33423    0.73420    0.72855    1.000
    Si1927   Si       0.28879    0.66043    0.70982    1.000
    N1928    N        0.30117    0.64226    0.56571    1.000
    Si1929   Si       0.32368    0.72544    0.51386    1.000
    Si1930   Si       0.29554    0.66778    0.60301    1.000
    N1931    N        0.29126    0.69522    0.50790    1.000
    N1932    N        0.33571    0.68050    0.61335    1.000
    N1933    N        0.31109    0.55922    0.66498    1.000
    Si1934   Si       0.32849    0.53049    0.63290    1.000
    Si1935   Si       0.32798    0.54944    0.70251    1.000
    N1936    N        0.29833    0.54313    0.73291    1.000
    Si1937   Si       0.29286    0.59947    0.66004    1.000
    N1938    N        0.31161    0.63149    0.68461    1.000
    N1939    N        0.28397    0.69774    0.68545    1.000
    Si1940   Si       0.29344    0.73467    0.70475    1.000
    N1941    N        0.34126    0.73298    0.55557    1.000
    N1942    N        0.30136    0.58788    0.78231    1.000
    Si1943   Si       0.30072    0.57228    0.82365    1.000
    N1944    N        0.29784    0.52864    0.82896    1.000
    N1945    N        0.33869    0.58463    0.83821    1.000
    Si1946   Si       0.31023    0.50813    0.86554    1.000
    Si1947   Si       0.30872    0.63278    0.78240    1.000
    Si1948   Si       0.32339    0.73640    0.88046    1.000
    N1949    N        0.31737    0.71265    0.79959    1.000
    Si1950   Si       0.32947    0.68812    0.83166    1.000
    Si1951   Si       0.32146    0.70030    0.75816    1.000
    N1952    N        0.32854    0.64813    0.81943    1.000
    Si1953   Si       0.30157    0.75249    0.80513    1.000
    N1954    N        0.31189    0.65821    0.74662    1.000
    N1955    N        0.31243    0.69448    0.87155    1.000
    N1956    N        0.29600    0.62008    0.97713    1.000
    N1957    N        0.32434    0.54138    0.95226    1.000
    Si1958   Si       0.30905    0.56250    0.91831    1.000
    N1959    N        0.32436    0.60133    0.91821    1.000
    N1960    N        0.33349    0.53431    0.88990    1.000
    Si1961   Si       0.29745    0.63285    0.93652    1.000
    Si1962   Si       0.29483    0.69701    0.91233    1.000
    N1963    N        0.30494    0.73955    0.91979    1.000
    N1964    N        0.31648    0.67191    0.93910    1.000
    Si1965   Si       0.32715    0.52955    0.99376    1.000
    Si1966   Si       0.29499    0.79486    0.01073    1.000
    N1967    N        0.29603    0.83764    0.02128    1.000
    Si1968   Si       0.31905    0.87460    0.02190    1.000
    N1969    N        0.33288    0.77261    0.01558    1.000
    N1970    N        0.33837    0.82422    0.10982    1.000
    N1971    N        0.32421    0.91529    0.09840    1.000
    Si1972   Si       0.32670    0.95588    0.11162    1.000
    Si1973   Si       0.30059    0.00097    0.06030    1.000
    N1974    N        0.33426    0.98091    0.07570    1.000
    Si1975   Si       0.33669    0.99075    0.00075    1.000
    N1976    N        0.28939    0.90388    0.03703    1.000
    Si1977   Si       0.28665    0.89719    0.08154    1.000
    N1978    N        0.31711    0.95237    0.99986    1.000
    Si1979   Si       0.30041    0.83984    0.12682    1.000
    N1980    N        0.29568    0.86624    0.22300    1.000
    N1981    N        0.32216    0.86546    0.15656    1.000
    Si1982   Si       0.29192    0.77772    0.17947    1.000
    N1983    N        0.31444    0.79864    0.21113    1.000
    Si1984   Si       0.30002    0.82817    0.24416    1.000
    N1985    N        0.29176    0.97567    0.12884    1.000
    Si1986   Si       0.32472    0.88316    0.19551    1.000
    Si1987   Si       0.28496    0.94617    0.21404    1.000
    N1988    N        0.32361    0.92900    0.19645    1.000
    N1989    N        0.28025    0.85354    0.08764    1.000
    N1990    N        0.31471    0.85962    0.35082    1.000
    N1991    N        0.33010    0.84028    0.27550    1.000
    Si1992   Si       0.31148    0.86598    0.30724    1.000
    Si1993   Si       0.32524    0.77060    0.34834    1.000
    N1994    N        0.33774    0.77467    0.27306    1.000
    Si1995   Si       0.28735    0.83040    0.37079    1.000
    Si1996   Si       0.28875    0.98090    0.33373    1.000
    N1997    N        0.32680    0.90698    0.30077    1.000
    N1998    N        0.31240    0.97663    0.29606    1.000
    Si1999   Si       0.29661    0.93664    0.29105    1.000
    N2000    N        0.32057    0.98057    0.36391    1.000
    N2001    N        0.30158    0.79027    0.37973    1.000
    N2002    N        0.33102    0.81692    0.48994    1.000
    Si2003   Si       0.30846    0.78366    0.46397    1.000
    Si2004   Si       0.33263    0.97026    0.46279    1.000
    N2005    N        0.30557    0.00771    0.46103    1.000
    Si2006   Si       0.33665    0.95092    0.39021    1.000
    N2007    N        0.31715    0.94785    0.42762    1.000
    N2008    N        0.29101    0.75918    0.32035    1.000
    Si2009   Si       0.30963    0.80210    0.52575    1.000
    N2010    N        0.30224    0.76709    0.60117    1.000
    N2011    N        0.30875    0.88075    0.50104    1.000
    N2012    N        0.30349    0.76354    0.50366    1.000
    N2013    N        0.33884    0.80620    0.55635    1.000
    N2014    N        0.28682    0.88127    0.59040    1.000
    Si2015   Si       0.33956    0.77003    0.58098    1.000
    N2016    N        0.29389    0.93882    0.54720    1.000
    Si2017   Si       0.31199    0.92536    0.51021    1.000
    Si2018   Si       0.29746    0.92133    0.58768    1.000
    N2019    N        0.34076    0.91957    0.59420    1.000
    Si2020   Si       0.29473    0.78447    0.64056    1.000
    N2021    N        0.31940    0.84804    0.70220    1.000
    N2022    N        0.30608    0.82800    0.63574    1.000
    Si2023   Si       0.33605    0.84381    0.66192    1.000
    Si2024   Si       0.29190    0.88184    0.69824    1.000
    N2025    N        0.34315    0.98145    0.71960    1.000
    N2026    N        0.32304    0.91314    0.70499    1.000
    Si2027   Si       0.32786    0.94372    0.73714    1.000
    N2028    N        0.31447    0.75757    0.67082    1.000
    N2029    N        0.31324    0.83013    0.83140    1.000
    N2030    N        0.32437    0.78011    0.78320    1.000
    N2031    N        0.33055    0.84953    0.77497    1.000
    Si2032   Si       0.29772    0.80081    0.85872    1.000
    Si2033   Si       0.29456    0.85520    0.79918    1.000
    N2034    N        0.31056    0.76068    0.84858    1.000
    Si2035   Si       0.34406    0.81523    0.80095    1.000
    N2036    N        0.30404    0.95340    0.82802    1.000
    Si2037   Si       0.32180    0.92043    0.80299    1.000
    Si2038   Si       0.30931    0.99667    0.82059    1.000
    N2039    N        0.28825    0.94425    0.75701    1.000
    N2040    N        0.33855    0.97532    0.89875    1.000
    N2041    N        0.28829    0.89471    0.81406    1.000
    N2042    N        0.31561    0.80579    0.89912    1.000
    Si2043   Si       0.32751    0.84531    0.90756    1.000
    Si2044   Si       0.31097    0.77915    0.93595    1.000
    N2045    N        0.29303    0.86458    0.92975    1.000
    N2046    N        0.28549    0.78909    0.97034    1.000
    N2047    N        0.33559    0.00341    0.95923    1.000
    Si2048   Si       0.31103    0.98137    0.93083    1.000
    N2049    N        0.30023    0.93663    0.93688    1.000
    N2050    N        0.33749    0.88741    0.98441    1.000
    N2051    N        0.33739    0.88541    0.88891    1.000
    Si2052   Si       0.30096    0.90296    0.90805    1.000
    Si2053   Si       0.33076    0.92711    0.96897    1.000
    Si2054   Si       0.38526    0.04040    0.01505    1.000
    N2055    N        0.35705    0.07175    0.02721    1.000
    Si2056   Si       0.35566    0.10130    0.05951    1.000
    N2057    N        0.39672    0.11947    0.05902    1.000
    N2058    N        0.34585    0.08194    0.09723    1.000
    N2059    N        0.37122    0.17810    0.08191    1.000
    N2060    N        0.37229    0.16036    0.00760    1.000
    Si2061   Si       0.35759    0.20492    0.11488    1.000
    Si2062   Si       0.35144    0.17072    0.04429    1.000
    Si2063   Si       0.38319    0.08388    0.12410    1.000
    Si2064   Si       0.35750    0.05515    0.24031    1.000
    N2065    N        0.39065    0.03356    0.22240    1.000
    N2066    N        0.38126    0.05369    0.15528    1.000
    N2067    N        0.38780    0.12739    0.13128    1.000
    N2068    N        0.39644    0.22328    0.12560    1.000
    Si2069   Si       0.35946    0.14331    0.16170    1.000
    N2070    N        0.38881    0.20159    0.24463    1.000
    Si2071   Si       0.35712    0.17389    0.23266    1.000
    N2072    N        0.34493    0.18322    0.14859    1.000
    Si2073   Si       0.39613    0.24873    0.16101    1.000
    N2074    N        0.36108    0.24472    0.18509    1.000
    N2075    N        0.37769    0.14882    0.20231    1.000
    Si2076   Si       0.40187    0.14719    0.09451    1.000
    Si2077   Si       0.34218    0.03818    0.17275    1.000
    Si2078   Si       0.37676    0.05595    0.30932    1.000
    Si2079   Si       0.37759    0.12180    0.28400    1.000
    N2080    N        0.36584    0.08195    0.34133    1.000
    N2081    N        0.36589    0.07963    0.27617    1.000
    Si2082   Si       0.36768    0.12416    0.35333    1.000
    N2083    N        0.36263    0.01629    0.32218    1.000
    N2084    N        0.39314    0.14081    0.31932    1.000
    Si2085   Si       0.39186    0.22849    0.27821    1.000
    N2086    N        0.35465    0.23368    0.29847    1.000
    N2087    N        0.34810    0.14891    0.26724    1.000
    Si2088   Si       0.38471    0.06878    0.37896    1.000
    N2089    N        0.37988    0.10879    0.39260    1.000
    N2090    N        0.35860    0.03615    0.39457    1.000
    Si2091   Si       0.38057    0.02352    0.48013    1.000
    N2092    N        0.34536    0.12071    0.45436    1.000
    Si2093   Si       0.37934    0.13135    0.43059    1.000
    N2094    N        0.34555    0.05342    0.46352    1.000
    Si2095   Si       0.38866    0.25192    0.40884    1.000
    N2096    N        0.38041    0.17061    0.41057    1.000
    N2097    N        0.34932    0.23520    0.40090    1.000
    N2098    N        0.34889    0.20099    0.46165    1.000
    Si2099   Si       0.34781    0.19706    0.42063    1.000
    N2100    N        0.37854    0.05438    0.57062    1.000
    Si2101   Si       0.36673    0.09485    0.55486    1.000
    N2102    N        0.37688    0.09138    0.51032    1.000
    Si2103   Si       0.35946    0.01734    0.55965    1.000
    N2104    N        0.35104    0.01977    0.51669    1.000
    N2105    N        0.38730    0.13079    0.56800    1.000
    Si2106   Si       0.37091    0.16963    0.55916    1.000
    N2107    N        0.35731    0.23662    0.60186    1.000
    N2108    N        0.36131    0.24955    0.50931    1.000
    N2109    N        0.35390    0.17881    0.52008    1.000
    Si2110   Si       0.39846    0.22699    0.59440    1.000
    Si2111   Si       0.37647    0.21172    0.49532    1.000
    Si2112   Si       0.38614    0.04357    0.65905    1.000
    N2113    N        0.38641    0.08159    0.68065    1.000
    Si2114   Si       0.37059    0.07869    0.72146    1.000
    N2115    N        0.34372    0.04408    0.65012    1.000
    Si2116   Si       0.39867    0.12401    0.67804    1.000
    N2117    N        0.34218    0.21269    0.71313    1.000
    N2118    N        0.36997    0.15416    0.68961    1.000
    Si2119   Si       0.37881    0.18859    0.71297    1.000
    N2120    N        0.39517    0.00914    0.68043    1.000
    N2121    N        0.36911    0.04482    0.74663    1.000
    Si2122   Si       0.36298    0.10706    0.78985    1.000
    N2123    N        0.38873    0.07681    0.80968    1.000
    N2124    N        0.38355    0.10915    0.75171    1.000
    N2125    N        0.38845    0.17665    0.88194    1.000
    Si2126   Si       0.38788    0.13538    0.90016    1.000
    N2127    N        0.37566    0.00933    0.84966    1.000
    N2128    N        0.40355    0.24540    0.83681    1.000
    Si2129   Si       0.38762    0.24510    0.79505    1.000
    Si2130   Si       0.38507    0.17831    0.78923    1.000
    N2131    N        0.35632    0.14932    0.80184    1.000
    N2132    N        0.36025    0.21413    0.78255    1.000
    N2133    N        0.37282    0.10565    0.87234    1.000
    Si2134   Si       0.34824    0.04446    0.94830    1.000
    N2135    N        0.38513    0.04320    0.97140    1.000
    N2136    N        0.37503    0.13358    0.94136    1.000
    Si2137   Si       0.34494    0.01376    0.87902    1.000
    N2138    N        0.34567    0.04987    0.90477    1.000
    Si2139   Si       0.35040    0.15413    0.97085    1.000
    Si2140   Si       0.38886    0.20057    0.92045    1.000
    N2141    N        0.35301    0.19323    0.94538    1.000
    N2142    N        0.37658    0.28007    0.07976    1.000
    N2143    N        0.36162    0.34109    0.10666    1.000
    Si2144   Si       0.35179    0.28560    0.04281    1.000
    Si2145   Si       0.34879    0.35654    0.06833    1.000
    Si2146   Si       0.37128    0.30051    0.11898    1.000
    N2147    N        0.35135    0.32846    0.03700    1.000
    N2148    N        0.36216    0.26445    0.00495    1.000
    N2149    N        0.37400    0.39149    0.06700    1.000
    Si2150   Si       0.36902    0.42636    0.04031    1.000
    N2151    N        0.36646    0.47215    0.04042    1.000
    Si2152   Si       0.38970    0.50409    0.02354    1.000
    N2153    N        0.38685    0.41553    0.00059    1.000
    N2154    N        0.36357    0.30501    0.21346    1.000
    Si2155   Si       0.37494    0.34589    0.20249    1.000
    N2156    N        0.35183    0.35271    0.16729    1.000
    N2157    N        0.36283    0.37534    0.23379    1.000
    Si2158   Si       0.36464    0.37775    0.13461    1.000
    N2159    N        0.40040    0.29115    0.14863    1.000
    N2160    N        0.36387    0.42393    0.17274    1.000
    N2161    N        0.40001    0.43658    0.23373    1.000
    N2162    N        0.35114    0.49982    0.14077    1.000
    Si2163   Si       0.39416    0.49801    0.13964    1.000
    N2164    N        0.34958    0.48044    0.20836    1.000
    Si2165   Si       0.38179    0.45463    0.19762    1.000
    Si2166   Si       0.37621    0.36689    0.32228    1.000
    N2167    N        0.37084    0.34370    0.36228    1.000
    Si2168   Si       0.38450    0.29891    0.30108    1.000
    N2169    N        0.39545    0.27284    0.26685    1.000
    Si2170   Si       0.35636    0.28262    0.25091    1.000
    N2171    N        0.39964    0.33895    0.30133    1.000
    N2172    N        0.40092    0.28078    0.33839    1.000
    Si2173   Si       0.40250    0.31422    0.36848    1.000
    N2174    N        0.37791    0.40738    0.29319    1.000
    N2175    N        0.38538    0.45316    0.34754    1.000
    Si2176   Si       0.39572    0.39630    0.25404    1.000
    Si2177   Si       0.34571    0.46991    0.34616    1.000
    Si2178   Si       0.39784    0.32463    0.43879    1.000
    N2179    N        0.37239    0.31232    0.47147    1.000
    Si2180   Si       0.35119    0.35577    0.39852    1.000
    N2181    N        0.38388    0.36328    0.42624    1.000
    N2182    N        0.39571    0.29566    0.40680    1.000
    N2183    N        0.34253    0.48345    0.38922    1.000
    N2184    N        0.36852    0.40930    0.47797    1.000
    Si2185   Si       0.37095    0.40504    0.43463    1.000
    N2186    N        0.40258    0.42896    0.41582    1.000
    N2187    N        0.34131    0.50425    0.31894    1.000
    N2188    N        0.39429    0.50522    0.26198    1.000
    N2189    N        0.37760    0.34496    0.59118    1.000
    Si2190   Si       0.37379    0.29143    0.50842    1.000
    Si2191   Si       0.38881    0.33240    0.55176    1.000
    N2192    N        0.34920    0.31590    0.53632    1.000
    N2193    N        0.40130    0.48221    0.73554    1.000
    Si2194   Si       0.37940    0.45122    0.55555    1.000
    N2195    N        0.36712    0.42488    0.58651    1.000
    N2196    N        0.39195    0.48787    0.57486    1.000
    Si2197   Si       0.38923    0.48846    0.62076    1.000
    N2198    N        0.34518    0.45388    0.53025    1.000
    Si2199   Si       0.39428    0.41435    0.62018    1.000
    Si2200   Si       0.34763    0.26867    0.63378    1.000
    Si2201   Si       0.38527    0.35312    0.67228    1.000
    Si2202   Si       0.37286    0.37762    0.74054    1.000
    N2203    N        0.38452    0.26204    0.65682    1.000
    N2204    N        0.34756    0.33386    0.66492    1.000
    N2205    N        0.39938    0.35532    0.71374    1.000
    N2206    N        0.36206    0.44364    0.69599    1.000
    Si2207   Si       0.34460    0.40612    0.67868    1.000
    N2208    N        0.35143    0.49343    0.64332    1.000
    N2209    N        0.37749    0.39241    0.65393    1.000
    Si2210   Si       0.39659    0.44248    0.72270    1.000
    Si2211   Si       0.34541    0.48305    0.68482    1.000
    N2212    N        0.36747    0.34971    0.77512    1.000
    N2213    N        0.36679    0.28330    0.79278    1.000
    Si2214   Si       0.39297    0.31817    0.79204    1.000
    N2215    N        0.35235    0.35538    0.86326    1.000
    Si2216   Si       0.37671    0.31965    0.86810    1.000
    N2217    N        0.34764    0.28753    0.86392    1.000
    Si2218   Si       0.36935    0.39539    0.86032    1.000
    N2219    N        0.36726    0.41465    0.82307    1.000
    N2220    N        0.36989    0.47346    0.80075    1.000
    Si2221   Si       0.39161    0.43587    0.79218    1.000
    N2222    N        0.38649    0.41586    0.75454    1.000
    N2223    N        0.36462    0.35045    0.97459    1.000
    Si2224   Si       0.38689    0.28150    0.92822    1.000
    N2225    N        0.39564    0.31994    0.90798    1.000
    Si2226   Si       0.39998    0.34097    0.94684    1.000
    N2227    N        0.34455    0.27510    0.93405    1.000
    N2228    N        0.39442    0.38579    0.93302    1.000
    Si2229   Si       0.35445    0.43727    0.91883    1.000
    Si2230   Si       0.37195    0.39190    0.96863    1.000
    N2231    N        0.39479    0.44892    0.90976    1.000
    N2232    N        0.35272    0.54176    0.08291    1.000
    Si2233   Si       0.39548    0.54763    0.08584    1.000
    N2234    N        0.34679    0.59395    0.02741    1.000
    N2235    N        0.37054    0.53004    0.99675    1.000
    Si2236   Si       0.39342    0.61290    0.12217    1.000
    N2237    N        0.39928    0.59040    0.08510    1.000
    Si2238   Si       0.36539    0.67013    0.03171    1.000
    N2239    N        0.36702    0.71506    0.03165    1.000
    N2240    N        0.38345    0.70030    0.11352    1.000
    N2241    N        0.39529    0.65234    0.05740    1.000
    N2242    N        0.34790    0.73238    0.22565    1.000
    N2243    N        0.35456    0.63274    0.12015    1.000
    N2244    N        0.36985    0.54835    0.20751    1.000
    Si2245   Si       0.36204    0.57883    0.18025    1.000
    N2246    N        0.35227    0.61472    0.20398    1.000
    Si2247   Si       0.35865    0.51512    0.23268    1.000
    N2248    N        0.39784    0.58991    0.15823    1.000
    Si2249   Si       0.37116    0.63480    0.23798    1.000
    Si2250   Si       0.34416    0.72441    0.18097    1.000
    Si2251   Si       0.39785    0.73533    0.13246    1.000
    Si2252   Si       0.34964    0.67480    0.12918    1.000
    N2253    N        0.38080    0.74283    0.17202    1.000
    N2254    N        0.34218    0.66673    0.23861    1.000
    Si2255   Si       0.35866    0.54195    0.33124    1.000
    N2256    N        0.38359    0.61661    0.34783    1.000
    N2257    N        0.37259    0.61840    0.27577    1.000
    N2258    N        0.39216    0.56013    0.30950    1.000
    N2259    N        0.40014    0.66119    0.40418    1.000
    N2260    N        0.36185    0.54792    0.37416    1.000
    N2261    N        0.36313    0.71075    0.41857    1.000
    N2262    N        0.39194    0.68722    0.33368    1.000
    Si2263   Si       0.35589    0.70377    0.25793    1.000
    Si2264   Si       0.39407    0.74341    0.35894    1.000
    N2265    N        0.34997    0.73594    0.35558    1.000
    Si2266   Si       0.34860    0.69810    0.33279    1.000
    N2267    N        0.39798    0.70872    0.26787    1.000
    Si2268   Si       0.40060    0.65436    0.36117    1.000
    Si2269   Si       0.36520    0.59163    0.37797    1.000
    N2270    N        0.36352    0.52442    0.44801    1.000
    N2271    N        0.39103    0.59371    0.41252    1.000
    Si2272   Si       0.36776    0.51596    0.40429    1.000
    Si2273   Si       0.37549    0.61068    0.49524    1.000
    Si2274   Si       0.39915    0.53292    0.47237    1.000
    N2275    N        0.39189    0.57155    0.49351    1.000
    Si2276   Si       0.35370    0.68136    0.45453    1.000
    N2277    N        0.35348    0.70909    0.48672    1.000
    N2278    N        0.37158    0.64066    0.46256    1.000
    Si2279   Si       0.39106    0.72842    0.49068    1.000
    Si2280   Si       0.37479    0.75257    0.42518    1.000
    Si2281   Si       0.38725    0.51918    0.54263    1.000
    N2282    N        0.36318    0.61580    0.58558    1.000
    N2283    N        0.35645    0.55365    0.61070    1.000
    Si2284   Si       0.34888    0.59428    0.61964    1.000
    Si2285   Si       0.39974    0.55511    0.60231    1.000
    N2286    N        0.34473    0.52808    0.53381    1.000
    Si2287   Si       0.34445    0.63519    0.55317    1.000
    N2288    N        0.36836    0.67029    0.54903    1.000
    Si2289   Si       0.35844    0.69902    0.57880    1.000
    N2290    N        0.39410    0.70615    0.60568    1.000
    N2291    N        0.36587    0.69778    0.67792    1.000
    N2292    N        0.34560    0.58430    0.72200    1.000
    Si2293   Si       0.38570    0.52378    0.73655    1.000
    N2294    N        0.35920    0.52041    0.70311    1.000
    N2295    N        0.36917    0.60302    0.65882    1.000
    Si2296   Si       0.35163    0.61847    0.69515    1.000
    N2297    N        0.38345    0.64185    0.71382    1.000
    Si2298   Si       0.37277    0.68122    0.63704    1.000
    Si2299   Si       0.38636    0.68695    0.71373    1.000
    Si2300   Si       0.35014    0.73733    0.68536    1.000
    N2301    N        0.34112    0.60561    0.52162    1.000
    N2302    N        0.38766    0.75765    0.69269    1.000
    N2303    N        0.35911    0.61351    0.77821    1.000
    Si2304   Si       0.35998    0.61806    0.82181    1.000
    N2305    N        0.38510    0.53287    0.84118    1.000
    N2306    N        0.36603    0.53954    0.77229    1.000
    Si2307   Si       0.36148    0.56075    0.86542    1.000
    Si2308   Si       0.38277    0.51409    0.80233    1.000
    N2309    N        0.37488    0.64760    0.92184    1.000
    N2310    N        0.36761    0.68858    0.75844    1.000
    N2311    N        0.37218    0.69733    0.83282    1.000
    Si2312   Si       0.38608    0.70909    0.79226    1.000
    Si2313   Si       0.37616    0.64532    0.75709    1.000
    N2314    N        0.38206    0.74975    0.78060    1.000
    Si2315   Si       0.39218    0.71730    0.86364    1.000
    N2316    N        0.38543    0.58556    0.88749    1.000
    Si2317   Si       0.36702    0.60517    0.92125    1.000
    N2318    N        0.38790    0.58845    0.95510    1.000
    Si2319   Si       0.39425    0.54573    0.96256    1.000
    N2320    N        0.38981    0.51740    0.93088    1.000
    Si2321   Si       0.34768    0.51393    0.92591    1.000
    Si2322   Si       0.37571    0.74426    0.93150    1.000
    N2323    N        0.36656    0.64911    0.98972    1.000
    N2324    N        0.37636    0.71238    0.96048    1.000
    N2325    N        0.36412    0.73392    0.89118    1.000
    Si2326   Si       0.35894    0.67247    0.95303    1.000
    Si2327   Si       0.40302    0.62172    0.97768    1.000
    Si2328   Si       0.34252    0.57518    0.76480    1.000
    Si2329   Si       0.39390    0.72451    0.99921    1.000
    Si2330   Si       0.36046    0.79153    0.08964    1.000
    Si2331   Si       0.38454    0.84558    0.03871    1.000
    N2332    N        0.38765    0.80643    0.05948    1.000
    N2333    N        0.35138    0.87033    0.05027    1.000
    N2334    N        0.38229    0.88082    0.10901    1.000
    N2335    N        0.39023    0.77480    0.11761    1.000
    N2336    N        0.37285    0.83137    0.99835    1.000
    Si2337   Si       0.35956    0.90149    0.07814    1.000
    N2338    N        0.38511    0.93372    0.06138    1.000
    Si2339   Si       0.37724    0.97802    0.06220    1.000
    N2340    N        0.37340    0.99980    0.02451    1.000
    N2341    N        0.39268    0.83726    0.15626    1.000
    N2342    N        0.36071    0.86433    0.21139    1.000
    Si2343   Si       0.35943    0.85474    0.13287    1.000
    N2344    N        0.38297    0.79536    0.22214    1.000
    Si2345   Si       0.34570    0.77561    0.23073    1.000
    Si2346   Si       0.39972    0.85670    0.19445    1.000
    N2347    N        0.34334    0.99834    0.18869    1.000
    Si2348   Si       0.40162    0.96746    0.12840    1.000
    Si2349   Si       0.35323    0.95700    0.18176    1.000
    N2350    N        0.36068    0.95637    0.13879    1.000
    N2351    N        0.39493    0.95528    0.19990    1.000
    Si2352   Si       0.40022    0.99085    0.22744    1.000
    N2353    N        0.37665    0.87231    0.32898    1.000
    Si2354   Si       0.35447    0.80790    0.29366    1.000
    N2355    N        0.35243    0.80089    0.33642    1.000
    N2356    N        0.39071    0.82843    0.28178    1.000
    Si2357   Si       0.35458    0.87352    0.36609    1.000
    Si2358   Si       0.36597    0.85409    0.25384    1.000
    Si2359   Si       0.38348    0.81215    0.36820    1.000
    N2360    N        0.38367    0.89257    0.26425    1.000
    Si2361   Si       0.36970    0.90549    0.30156    1.000
    N2362    N        0.38686    0.94153    0.31908    1.000
    N2363    N        0.38853    0.98403    0.26878    1.000
    Si2364   Si       0.39400    0.93802    0.36221    1.000
    Si2365   Si       0.35014    0.99629    0.28617    1.000
    Si2366   Si       0.35635    0.00528    0.36427    1.000
    N2367    N        0.38887    0.77537    0.39012    1.000
    N2368    N        0.37319    0.84533    0.39317    1.000
    Si2369   Si       0.37129    0.79719    0.48188    1.000
    Si2370   Si       0.39325    0.85593    0.43151    1.000
    N2371    N        0.34762    0.77535    0.44728    1.000
    N2372    N        0.36454    0.87835    0.45565    1.000
    N2373    N        0.39941    0.82167    0.46006    1.000
    Si2374   Si       0.34477    0.85908    0.48879    1.000
    Si2375   Si       0.39841    0.97579    0.42592    1.000
    N2376    N        0.37928    0.97271    0.38528    1.000
    N2377    N        0.36687    0.99227    0.45113    1.000
    Si2378   Si       0.37930    0.91526    0.47311    1.000
    N2379    N        0.36007    0.91469    0.37697    1.000
    N2380    N        0.34851    0.93818    0.49083    1.000
    N2381    N        0.40268    0.93565    0.44301    1.000
    N2382    N        0.37372    0.85903    0.52040    1.000
    Si2383   Si       0.37250    0.83352    0.55608    1.000
    N2384    N        0.37390    0.84954    0.59776    1.000
    N2385    N        0.37510    0.77497    0.60592    1.000
    N2386    N        0.38917    0.76629    0.50746    1.000
    Si2387   Si       0.38792    0.81455    0.62207    1.000
    Si2388   Si       0.36856    0.88917    0.61326    1.000
    N2389    N        0.38021    0.98266    0.57414    1.000
    Si2390   Si       0.36502    0.95456    0.60279    1.000
    N2391    N        0.39825    0.92516    0.61301    1.000
    Si2392   Si       0.34679    0.84531    0.73573    1.000
    N2393    N        0.37059    0.81780    0.66108    1.000
    Si2394   Si       0.38391    0.80125    0.69786    1.000
    N2395    N        0.36267    0.80355    0.73593    1.000
    N2396    N        0.37937    0.87079    0.71981    1.000
    N2397    N        0.35230    0.88137    0.65272    1.000
    N2398    N        0.34932    0.97633    0.63808    1.000
    Si2399   Si       0.36433    0.97686    0.68058    1.000
    N2400    N        0.38304    0.93773    0.68300    1.000
    Si2401   Si       0.36179    0.89990    0.69077    1.000
    N2402    N        0.38577    0.81080    0.80879    1.000
    Si2403   Si       0.35109    0.76570    0.75264    1.000
    N2404    N        0.40075    0.87880    0.78545    1.000
    Si2405   Si       0.38378    0.91751    0.79654    1.000
    Si2406   Si       0.38221    0.99247    0.81032    1.000
    N2407    N        0.35579    0.91012    0.82864    1.000
    N2408    N        0.34885    0.92591    0.77047    1.000
    Si2409   Si       0.37169    0.89653    0.86624    1.000
    N2410    N        0.35174    0.77812    0.95098    1.000
    N2411    N        0.36706    0.84143    0.92794    1.000
    Si2412   Si       0.36999    0.86267    0.96523    1.000
    Si2413   Si       0.36224    0.79047    0.99163    1.000
    Si2414   Si       0.39871    0.81366    0.91895    1.000
    N2415    N        0.36864    0.94223    0.95306    1.000
    Si2416   Si       0.37641    0.96204    0.91425    1.000
    N2417    N        0.39356    0.92887    0.89030    1.000
    N2418    N        0.40241    0.95382    0.81125    1.000
    N2419    N        0.34316    0.99930    0.78941    1.000
    Si2420   Si       0.42495    0.08324    0.06381    1.000
    N2421    N        0.42313    0.05410    0.02905    1.000
    N2422    N        0.41573    0.06439    0.10095    1.000
    Si2423   Si       0.42844    0.02355    0.11100    1.000
    Si2424   Si       0.45356    0.02570    0.01759    1.000
    Si2425   Si       0.40927    0.14268    0.02115    1.000
    Si2426   Si       0.43371    0.21516    0.10469    1.000
    N2427    N        0.42831    0.23501    0.06561    1.000
    N2428    N        0.43300    0.17359    0.03880    1.000
    Si2429   Si       0.44785    0.21433    0.03160    1.000
    N2430    N        0.44070    0.16737    0.10124    1.000
    N2431    N        0.43005    0.22948    0.99451    1.000
    N2432    N        0.44434    0.16579    0.22008    1.000
    Si2433   Si       0.40912    0.05560    0.19025    1.000
    N2434    N        0.42179    0.09544    0.19989    1.000
    N2435    N        0.45216    0.04557    0.18359    1.000
    Si2436   Si       0.41486    0.13211    0.22243    1.000
    N2437    N        0.42648    0.22911    0.18639    1.000
    Si2438   Si       0.42672    0.20729    0.22220    1.000
    Si2439   Si       0.44040    0.04080    0.34299    1.000
    N2440    N        0.42084    0.06534    0.31381    1.000
    Si2441   Si       0.44362    0.09645    0.29156    1.000
    N2442    N        0.41773    0.11957    0.26438    1.000
    Si2443   Si       0.43331    0.15960    0.31831    1.000
    N2444    N        0.42477    0.21982    0.30787    1.000
    Si2445   Si       0.42651    0.24388    0.34392    1.000
    N2446    N        0.44068    0.16539    0.36131    1.000
    N2447    N        0.44754    0.23323    0.24995    1.000
    N2448    N        0.40927    0.05130    0.45982    1.000
    N2449    N        0.42434    0.05080    0.38286    1.000
    N2450    N        0.41353    0.12221    0.45891    1.000
    Si2451   Si       0.43462    0.04095    0.42406    1.000
    Si2452   Si       0.41281    0.08723    0.48576    1.000
    N2453    N        0.44564    0.18186    0.42861    1.000
    Si2454   Si       0.44956    0.14030    0.44189    1.000
    Si2455   Si       0.43816    0.21262    0.46177    1.000
    N2456    N        0.41502    0.22717    0.38195    1.000
    Si2457   Si       0.42138    0.18487    0.39337    1.000
    N2458    N        0.41454    0.24652    0.44566    1.000
    N2459    N        0.46205    0.12266    0.32142    1.000
    Si2460   Si       0.42041    0.05267    0.58267    1.000
    N2461    N        0.43818    0.09172    0.58512    1.000
    N2462    N        0.44867    0.08147    0.51216    1.000
    N2463    N        0.43826    0.01521    0.56711    1.000
    Si2464   Si       0.43110    0.13429    0.57403    1.000
    Si2465   Si       0.43786    0.19047    0.53237    1.000
    N2466    N        0.44281    0.14791    0.53475    1.000
    N2467    N        0.40445    0.19678    0.56242    1.000
    N2468    N        0.41814    0.20417    0.49698    1.000
    Si2469   Si       0.43668    0.09468    0.62990    1.000
    N2470    N        0.41759    0.05460    0.62918    1.000
    N2471    N        0.43158    0.12434    0.70644    1.000
    N2472    N        0.41755    0.13281    0.64047    1.000
    Si2473   Si       0.44191    0.17154    0.63561    1.000
    Si2474   Si       0.43264    0.20923    0.73671    1.000
    N2475    N        0.41315    0.21097    0.69947    1.000
    Si2476   Si       0.41356    0.23434    0.66238    1.000
    N2477    N        0.45204    0.25581    0.66325    1.000
    N2478    N        0.41297    0.20555    0.63120    1.000
    N2479    N        0.40321    0.17611    0.74927    1.000
    N2480    N        0.45946    0.15733    0.59750    1.000
    Si2481   Si       0.41847    0.13280    0.74582    1.000
    N2482    N        0.43559    0.11867    0.84688    1.000
    N2483    N        0.43602    0.06637    0.75236    1.000
    N2484    N        0.41561    0.01328    0.78829    1.000
    N2485    N        0.41901    0.05571    0.87586    1.000
    Si2486   Si       0.41188    0.01349    0.87336    1.000
    Si2487   Si       0.40290    0.05372    0.77516    1.000
    N2488    N        0.44919    0.13352    0.77669    1.000
    N2489    N        0.41603    0.17826    0.81976    1.000
    N2490    N        0.42097    0.24232    0.76545    1.000
    Si2491   Si       0.44791    0.14762    0.81738    1.000
    Si2492   Si       0.40899    0.20259    0.85477    1.000
    N2493    N        0.42176    0.18030    0.94168    1.000
    Si2494   Si       0.44205    0.07507    0.90707    1.000
    Si2495   Si       0.41701    0.01981    0.94944    1.000
    N2496    N        0.44813    0.04764    0.93986    1.000
    N2497    N        0.42904    0.11687    0.91231    1.000
    N2498    N        0.43371    0.12966    0.98789    1.000
    Si2499   Si       0.46090    0.12675    0.88125    1.000
    Si2500   Si       0.45093    0.20648    0.96242    1.000
    Si2501   Si       0.41771    0.13819    0.94936    1.000
    N2502    N        0.44571    0.21030    0.87828    1.000
    Si2503   Si       0.44436    0.24433    0.90372    1.000
    Si2504   Si       0.40545    0.08723    0.84935    1.000
    N2505    N        0.40067    0.24268    0.91622    1.000
    N2506    N        0.44490    0.36903    0.07668    1.000
    Si2507   Si       0.41776    0.27941    0.06633    1.000
    N2508    N        0.42047    0.29164    0.02592    1.000
    N2509    N        0.45049    0.29835    0.08652    1.000
    N2510    N        0.40548    0.39291    0.12855    1.000
    Si2511   Si       0.41259    0.39913    0.08415    1.000
    N2512    N        0.41957    0.43267    0.05445    1.000
    Si2513   Si       0.43811    0.45860    0.08518    1.000
    Si2514   Si       0.42371    0.43981    0.01198    1.000
    N2515    N        0.42435    0.48480    0.00483    1.000
    N2516    N        0.40456    0.47093    0.10871    1.000
    N2517    N        0.45505    0.42640    0.11028    1.000
    Si2518   Si       0.45270    0.51093    0.03244    1.000
    Si2519   Si       0.45141    0.36888    0.21194    1.000
    N2520    N        0.41843    0.34869    0.19057    1.000
    Si2521   Si       0.43086    0.30978    0.17254    1.000
    N2522    N        0.43920    0.28858    0.20981    1.000
    Si2523   Si       0.44377    0.40320    0.14534    1.000
    N2524    N        0.45060    0.48256    0.23445    1.000
    Si2525   Si       0.44722    0.49372    0.19164    1.000
    N2526    N        0.45730    0.40806    0.18948    1.000
    N2527    N        0.40987    0.48075    0.17736    1.000
    Si2528   Si       0.43795    0.34538    0.28382    1.000
    Si2529   Si       0.45100    0.36488    0.34657    1.000
    Si2530   Si       0.43686    0.27627    0.25242    1.000
    N2531    N        0.43229    0.37393    0.25095    1.000
    N2532    N        0.45807    0.30751    0.27392    1.000
    N2533    N        0.41594    0.38863    0.33727    1.000
    N2534    N        0.44798    0.45779    0.36170    1.000
    Si2535   Si       0.41661    0.46890    0.25622    1.000
    N2536    N        0.43252    0.45107    0.29545    1.000
    Si2537   Si       0.40672    0.42718    0.32004    1.000
    Si2538   Si       0.45731    0.47577    0.32212    1.000
    N2539    N        0.44094    0.33210    0.37254    1.000
    N2540    N        0.44154    0.32561    0.44518    1.000
    Si2541   Si       0.44486    0.28084    0.45169    1.000
    N2542    N        0.40856    0.49908    0.40141    1.000
    N2543    N        0.44173    0.46129    0.46355    1.000
    N2544    N        0.43422    0.39207    0.46910    1.000
    Si2545   Si       0.40843    0.45877    0.38358    1.000
    Si2546   Si       0.43742    0.42452    0.44089    1.000
    Si2547   Si       0.46163    0.35745    0.46759    1.000
    Si2548   Si       0.44564    0.36282    0.53697    1.000
    N2549    N        0.43717    0.33567    0.57117    1.000
    Si2550   Si       0.41754    0.34962    0.60800    1.000
    N2551    N        0.40996    0.30044    0.52889    1.000
    Si2552   Si       0.45374    0.29978    0.52418    1.000
    N2553    N        0.42237    0.26415    0.59102    1.000
    N2554    N        0.42891    0.39043    0.60780    1.000
    Si2555   Si       0.43235    0.46993    0.50687    1.000
    N2556    N        0.40865    0.43727    0.52455    1.000
    Si2557   Si       0.40539    0.40039    0.49916    1.000
    N2558    N        0.40709    0.50534    0.50648    1.000
    N2559    N        0.41421    0.33135    0.64751    1.000
    Si2560   Si       0.44567    0.29998    0.66057    1.000
    Si2561   Si       0.43299    0.33566    0.73185    1.000
    N2562    N        0.45375    0.31474    0.69975    1.000
    Si2563   Si       0.43907    0.49732    0.72453    1.000
    N2564    N        0.40946    0.45257    0.63540    1.000
    N2565    N        0.43488    0.42733    0.70362    1.000
    Si2566   Si       0.44103    0.44918    0.66530    1.000
    N2567    N        0.44749    0.48868    0.68240    1.000
    N2568    N        0.40326    0.37036    0.52914    1.000
    N2569    N        0.42756    0.31173    0.76629    1.000
    Si2570   Si       0.42966    0.27954    0.84420    1.000
    Si2571   Si       0.45154    0.27596    0.77147    1.000
    N2572    N        0.45414    0.37442    0.80983    1.000
    N2573    N        0.40600    0.31605    0.83531    1.000
    N2574    N        0.44719    0.47496    0.93892    1.000
    Si2575   Si       0.44237    0.40719    0.83496    1.000
    N2576    N        0.43333    0.43946    0.80616    1.000
    Si2577   Si       0.45337    0.47641    0.79434    1.000
    N2578    N        0.41369    0.39719    0.86724    1.000
    N2579    N        0.43741    0.35349    0.96953    1.000
    N2580    N        0.40616    0.29653    0.96738    1.000
    N2581    N        0.45249    0.28122    0.88196    1.000
    Si2582   Si       0.44034    0.31596    0.99255    1.000
    Si2583   Si       0.45252    0.50273    0.97294    1.000
    Si2584   Si       0.42064    0.41165    0.90722    1.000
    N2585    N        0.43520    0.49533    0.87531    1.000
    N2586    N        0.45972    0.40119    0.92128    1.000
    N2587    N        0.45732    0.42193    0.99186    1.000
    Si2588   Si       0.41518    0.48795    0.91342    1.000
    Si2589   Si       0.40613    0.26452    0.99704    1.000
    N2590    N        0.42339    0.60295    0.01187    1.000
    Si2591   Si       0.41882    0.61528    0.05456    1.000
    N2592    N        0.41213    0.52746    0.05163    1.000
    Si2593   Si       0.45287    0.57351    0.99896    1.000
    Si2594   Si       0.45628    0.71771    0.04263    1.000
    Si2595   Si       0.41148    0.67643    0.09220    1.000
    N2596    N        0.43276    0.70666    0.00852    1.000
    N2597    N        0.43660    0.75194    0.06370    1.000
    N2598    N        0.45170    0.68521    0.07279    1.000
    N2599    N        0.42243    0.64435    0.12016    1.000
    Si2600   Si       0.45595    0.75895    0.10297    1.000
    Si2601   Si       0.41231    0.75840    0.20313    1.000
    N2602    N        0.41120    0.53654    0.12595    1.000
    Si2603   Si       0.43250    0.56269    0.15478    1.000
    N2604    N        0.44548    0.53844    0.18854    1.000
    N2605    N        0.43281    0.71898    0.20297    1.000
    Si2606   Si       0.45409    0.70195    0.16904    1.000
    Si2607   Si       0.44848    0.64435    0.21720    1.000
    Si2608   Si       0.42504    0.69407    0.23830    1.000
    N2609    N        0.45595    0.65776    0.17664    1.000
    N2610    N        0.40637    0.65704    0.22573    1.000
    N2611    N        0.44027    0.72781    0.13505    1.000
    Si2612   Si       0.45994    0.63368    0.14141    1.000
    Si2613   Si       0.41748    0.53198    0.29013    1.000
    N2614    N        0.43862    0.61432    0.30240    1.000
    N2615    N        0.44218    0.51699    0.32354    1.000
    N2616    N        0.44720    0.55639    0.26654    1.000
    N2617    N        0.44431    0.65078    0.35746    1.000
    Si2618   Si       0.41924    0.71086    0.30792    1.000
    N2619    N        0.41344    0.75341    0.32074    1.000
    N2620    N        0.46202    0.70021    0.31176    1.000
    N2621    N        0.43434    0.54478    0.44744    1.000
    N2622    N        0.44395    0.61509    0.43767    1.000
    Si2623   Si       0.43178    0.57823    0.41765    1.000
    Si2624   Si       0.44463    0.51716    0.41215    1.000
    N2625    N        0.44854    0.55286    0.38651    1.000
    Si2626   Si       0.40224    0.63035    0.43311    1.000
    N2627    N        0.42545    0.72313    0.38213    1.000
    N2628    N        0.45317    0.69334    0.44153    1.000
    Si2629   Si       0.41403    0.70163    0.41874    1.000
    Si2630   Si       0.45268    0.74081    0.45965    1.000
    Si2631   Si       0.45839    0.68383    0.48855    1.000
    N2632    N        0.40892    0.73593    0.45014    1.000
    Si2633   Si       0.39749    0.60372    0.30825    1.000
    Si2634   Si       0.42059    0.58472    0.52935    1.000
    N2635    N        0.45565    0.55983    0.51547    1.000
    N2636    N        0.40602    0.62578    0.52100    1.000
    N2637    N        0.40459    0.55570    0.55979    1.000
    N2638    N        0.45786    0.60606    0.55514    1.000
    Si2639   Si       0.40947    0.74627    0.60518    1.000
    N2640    N        0.44162    0.67245    0.56196    1.000
    Si2641   Si       0.43339    0.67288    0.60601    1.000
    N2642    N        0.41860    0.69637    0.50291    1.000
    Si2643   Si       0.40822    0.66726    0.53389    1.000
    N2644    N        0.43024    0.75327    0.56688    1.000
    Si2645   Si       0.43140    0.64197    0.72430    1.000
    N2646    N        0.42178    0.58912    0.61827    1.000
    N2647    N        0.41505    0.52251    0.62873    1.000
    N2648    N        0.43922    0.61422    0.68864    1.000
    N2649    N        0.42776    0.53753    0.73591    1.000
    Si2650   Si       0.45136    0.51706    0.65044    1.000
    Si2651   Si       0.41205    0.61389    0.65415    1.000
    N2652    N        0.42896    0.68618    0.72049    1.000
    N2653    N        0.40775    0.65374    0.63718    1.000
    Si2654   Si       0.42983    0.52755    0.84599    1.000
    Si2655   Si       0.43221    0.62138    0.80171    1.000
    N2656    N        0.44601    0.56638    0.85810    1.000
    Si2657   Si       0.45091    0.54506    0.77270    1.000
    N2658    N        0.44979    0.58701    0.78332    1.000
    N2659    N        0.43103    0.51494    0.80203    1.000
    Si2660   Si       0.42146    0.60093    0.86811    1.000
    N2661    N        0.41690    0.64451    0.76738    1.000
    N2662    N        0.42903    0.70282    0.79392    1.000
    Si2663   Si       0.45345    0.67175    0.77388    1.000
    N2664    N        0.41105    0.75329    0.84693    1.000
    N2665    N        0.43649    0.54252    0.97332    1.000
    N2666    N        0.43981    0.63094    0.89291    1.000
    Si2667   Si       0.41616    0.65953    0.91561    1.000
    Si2668   Si       0.45837    0.71342    0.89771    1.000
    Si2669   Si       0.45185    0.68433    0.97585    1.000
    N2670    N        0.42654    0.65322    0.95890    1.000
    N2671    N        0.41780    0.69612    0.89032    1.000
    N2672    N        0.40125    0.61645    0.83246    1.000
    N2673    N        0.41815    0.87265    0.03370    1.000
    Si2674   Si       0.41916    0.78386    0.03963    1.000
    N2675    N        0.44883    0.80868    0.01512    1.000
    Si2676   Si       0.45387    0.85278    0.01645    1.000
    N2677    N        0.45270    0.80209    0.11321    1.000
    N2678    N        0.45628    0.87239    0.11116    1.000
    N2679    N        0.40184    0.76872    0.99829    1.000
    N2680    N        0.42075    0.94011    0.00437    1.000
    Si2681   Si       0.42002    0.91645    0.03937    1.000
    Si2682   Si       0.45485    0.96569    0.00284    1.000
    Si2683   Si       0.46076    0.00315    0.18364    1.000
    N2684    N        0.40092    0.99462    0.09493    1.000
    N2685    N        0.43427    0.78670    0.17555    1.000
    N2686    N        0.42458    0.84933    0.22906    1.000
    Si2687   Si       0.41420    0.80396    0.14066    1.000
    N2688    N        0.43631    0.77035    0.24107    1.000
    N2689    N        0.46212    0.92277    0.05474    1.000
    N2690    N        0.43364    0.98903    0.14979    1.000
    Si2691   Si       0.41992    0.89114    0.13014    1.000
    Si2692   Si       0.42763    0.92783    0.19690    1.000
    N2693    N        0.41533    0.89262    0.17501    1.000
    N2694    N        0.44600    0.98685    0.22559    1.000
    N2695    N        0.44202    0.91827    0.23656    1.000
    N2696    N        0.42576    0.93272    0.12030    1.000
    N2697    N        0.41799    0.81992    0.34373    1.000
    Si2698   Si       0.44011    0.78764    0.32424    1.000
    Si2699   Si       0.41089    0.84979    0.31424    1.000
    N2700    N        0.43655    0.87977    0.29654    1.000
    Si2701   Si       0.42496    0.88481    0.25516    1.000
    N2702    N        0.43136    0.00087    0.32928    1.000
    N2703    N        0.43394    0.92116    0.36101    1.000
    Si2704   Si       0.45390    0.91460    0.32036    1.000
    Si2705   Si       0.41163    0.97347    0.30327    1.000
    N2706    N        0.45297    0.95134    0.29670    1.000
    Si2707   Si       0.46000    0.95550    0.25198    1.000
    Si2708   Si       0.43952    0.81812    0.47590    1.000
    N2709    N        0.44990    0.77882    0.48928    1.000
    N2710    N        0.43046    0.87925    0.42977    1.000
    Si2711   Si       0.44747    0.99330    0.47837    1.000
    N2712    N        0.43349    0.99744    0.43584    1.000
    N2713    N        0.41718    0.90235    0.49385    1.000
    Si2714   Si       0.44762    0.90430    0.39635    1.000
    Si2715   Si       0.44182    0.91942    0.45972    1.000
    N2716    N        0.45550    0.80746    0.28758    1.000
    Si2717   Si       0.41682    0.80903    0.25073    1.000
    Si2718   Si       0.43585    0.84248    0.57928    1.000
    Si2719   Si       0.42524    0.77811    0.53140    1.000
    N2720    N        0.41401    0.81595    0.55199    1.000
    Si2721   Si       0.41599    0.87033    0.52239    1.000
    N2722    N        0.43139    0.82269    0.61778    1.000
    N2723    N        0.44734    0.84776    0.50595    1.000
    N2724    N        0.42167    0.88182    0.56378    1.000
    Si2725   Si       0.41461    0.98612    0.54484    1.000
    N2726    N        0.43390    0.94809    0.55095    1.000
    Si2727   Si       0.42819    0.92055    0.58356    1.000
    N2728    N        0.41346    0.99916    0.50440    1.000
    N2729    N        0.42705    0.80363    0.69603    1.000
    Si2730   Si       0.42912    0.76119    0.68287    1.000
    Si2731   Si       0.43433    0.99300    0.69016    1.000
    N2732    N        0.43738    0.75776    0.64006    1.000
    N2733    N        0.44410    0.97655    0.72834    1.000
    N2734    N        0.44176    0.90243    0.74160    1.000
    N2735    N        0.43855    0.89736    0.66289    1.000
    Si2736   Si       0.41216    0.93063    0.65368    1.000
    N2737    N        0.43694    0.96600    0.65346    1.000
    Si2738   Si       0.46011    0.94044    0.74666    1.000
    N2739    N        0.44639    0.77033    0.78633    1.000
    N2740    N        0.45047    0.83229    0.81855    1.000
    Si2741   Si       0.41062    0.84919    0.81290    1.000
    N2742    N        0.44196    0.83484    0.75098    1.000
    Si2743   Si       0.40710    0.77271    0.80804    1.000
    N2744    N        0.40586    0.87262    0.85078    1.000
    Si2745   Si       0.44337    0.85674    0.87000    1.000
    N2746    N        0.40153    0.99848    0.91385    1.000
    N2747    N        0.45923    0.92980    0.85857    1.000
    N2748    N        0.44419    0.99447    0.84888    1.000
    Si2749   Si       0.44299    0.95649    0.82756    1.000
    Si2750   Si       0.44986    0.99726    0.76737    1.000
    N2751    N        0.40539    0.88616    0.96090    1.000
    N2752    N        0.42441    0.81822    0.88387    1.000
    N2753    N        0.40949    0.76953    0.92157    1.000
    Si2754   Si       0.43381    0.78896    0.97497    1.000
    Si2755   Si       0.44189    0.86468    0.94758    1.000
    N2756    N        0.44660    0.87909    0.90647    1.000
    N2757    N        0.42722    0.82438    0.95142    1.000
    Si2758   Si       0.42887    0.77469    0.88041    1.000
    N2759    N        0.44098    0.93938    0.93613    1.000
    Si2760   Si       0.40815    0.92776    0.96491    1.000
    N2761    N        0.44302    0.00128    0.98095    1.000
    Si2762   Si       0.43771    0.92191    0.89611    1.000
    Si2763   Si       0.41387    0.86869    0.74503    1.000
    Si2764   Si       0.47365    0.07736    0.11198    1.000
    Si2765   Si       0.50616    0.11482    0.06816    1.000
    N2766    N        0.47008    0.03484    0.11527    1.000
    N2767    N        0.46285    0.09981    0.07495    1.000
    Si2768   Si       0.46826    0.14709    0.12796    1.000
    N2769    N        0.51714    0.08665    0.10105    1.000
    N2770    N        0.48759    0.13705    0.03250    1.000
    N2771    N        0.49973    0.14982    0.09661    1.000
    N2772    N        0.48749    0.20460    0.05149    1.000
    Si2773   Si       0.46808    0.16273    0.06386    1.000
    N2774    N        0.48443    0.10971    0.21354    1.000
    N2775    N        0.46164    0.10569    0.14253    1.000
    Si2776   Si       0.46147    0.08912    0.18366    1.000
    N2777    N        0.46859    0.23366    0.12251    1.000
    Si2778   Si       0.49514    0.20934    0.15037    1.000
    N2779    N        0.47869    0.17093    0.16249    1.000
    N2780    N        0.49697    0.23482    0.18650    1.000
    Si2781   Si       0.48214    0.15325    0.20215    1.000
    N2782    N        0.48216    0.03661    0.33475    1.000
    N2783    N        0.47782    0.07804    0.27483    1.000
    Si2784   Si       0.49900    0.04504    0.29232    1.000
    N2785    N        0.50524    0.09367    0.36773    1.000
    N2786    N        0.49912    0.21003    0.39620    1.000
    Si2787   Si       0.47564    0.13146    0.36288    1.000
    Si2788   Si       0.48456    0.25085    0.38984    1.000
    Si2789   Si       0.49628    0.14863    0.30737    1.000
    N2790    N        0.50890    0.15883    0.34801    1.000
    N2791    N        0.50413    0.24062    0.29099    1.000
    N2792    N        0.46694    0.17703    0.29331    1.000
    N2793    N        0.46842    0.24937    0.34935    1.000
    Si2794   Si       0.46537    0.21918    0.28544    1.000
    Si2795   Si       0.51072    0.25463    0.33342    1.000
    N2796    N        0.48338    0.01638    0.48522    1.000
    N2797    N        0.47619    0.05407    0.42751    1.000
    Si2798   Si       0.50124    0.02324    0.44534    1.000
    Si2799   Si       0.49494    0.08974    0.40971    1.000
    N2800    N        0.46746    0.12328    0.40604    1.000
    N2801    N        0.47832    0.13750    0.47532    1.000
    Si2802   Si       0.48933    0.18887    0.43331    1.000
    N2803    N        0.48053    0.21705    0.46354    1.000
    Si2804   Si       0.51972    0.13203    0.46570    1.000
    Si2805   Si       0.50768    0.10439    0.25184    1.000
    N2806    N        0.49650    0.03763    0.55063    1.000
    Si2807   Si       0.48334    0.05260    0.51112    1.000
    Si2808   Si       0.47281    0.11908    0.51602    1.000
    N2809    N        0.50351    0.13046    0.54724    1.000
    N2810    N        0.51108    0.08719    0.50238    1.000
    Si2811   Si       0.50047    0.14893    0.58689    1.000
    N2812    N        0.48257    0.23963    0.60355    1.000
    Si2813   Si       0.50428    0.22494    0.56835    1.000
    N2814    N        0.47610    0.21625    0.53282    1.000
    Si2815   Si       0.48851    0.24017    0.49957    1.000
    N2816    N        0.47498    0.19983    0.73333    1.000
    Si2817   Si       0.46701    0.10278    0.69668    1.000
    N2818    N        0.49014    0.06758    0.71155    1.000
    N2819    N        0.47382    0.09806    0.65448    1.000
    Si2820   Si       0.50705    0.03609    0.68868    1.000
    Si2821   Si       0.51586    0.09296    0.64514    1.000
    N2822    N        0.49391    0.13397    0.71822    1.000
    Si2823   Si       0.48873    0.17601    0.69921    1.000
    N2824    N        0.47361    0.18873    0.66152    1.000
    Si2825   Si       0.48554    0.22948    0.64625    1.000
    N2826    N        0.50067    0.09104    0.77446    1.000
    N2827    N        0.48625    0.04914    0.82725    1.000
    N2828    N        0.48722    0.01919    0.75861    1.000
    Si2829   Si       0.50562    0.06465    0.86542    1.000
    Si2830   Si       0.49030    0.13241    0.76226    1.000
    Si2831   Si       0.48394    0.00952    0.84673    1.000
    Si2832   Si       0.47869    0.06224    0.75239    1.000
    Si2833   Si       0.47707    0.14046    0.99116    1.000
    N2834    N        0.50188    0.22559    0.79424    1.000
    N2835    N        0.48388    0.16367    0.83363    1.000
    N2836    N        0.50820    0.22180    0.85727    1.000
    Si2837   Si       0.49612    0.25398    0.82878    1.000
    Si2838   Si       0.50086    0.23169    0.75300    1.000
    Si2839   Si       0.48195    0.18908    0.87026    1.000
    Si2840   Si       0.51512    0.18654    0.80960    1.000
    N2841    N        0.50737    0.02480    0.88007    1.000
    Si2842   Si       0.48149    0.02261    0.95926    1.000
    N2843    N        0.48181    0.08895    0.88987    1.000
    N2844    N        0.49841    0.11737    0.96138    1.000
    N2845    N        0.46977    0.23522    0.93563    1.000
    N2846    N        0.48145    0.18496    0.98051    1.000
    Si2847   Si       0.51435    0.14165    0.92835    1.000
    N2848    N        0.48636    0.15670    0.89896    1.000
    N2849    N        0.49033    0.03799    0.00119    1.000
    N2850    N        0.50699    0.35080    0.07818    1.000
    N2851    N        0.46912    0.33368    0.02189    1.000
    Si2852   Si       0.46595    0.33366    0.06482    1.000
    Si2853   Si       0.47586    0.27689    0.11661    1.000
    N2854    N        0.51646    0.28599    0.10566    1.000
    Si2855   Si       0.48141    0.38860    0.09613    1.000
    N2856    N        0.46356    0.48825    0.06744    1.000
    Si2857   Si       0.49786    0.50760    0.08264    1.000
    N2858    N        0.48466    0.49027    0.00021    1.000
    Si2859   Si       0.49132    0.43475    0.19758    1.000
    N2860    N        0.48348    0.47158    0.17744    1.000
    N2861    N        0.49124    0.35142    0.20445    1.000
    Si2862   Si       0.50648    0.36975    0.16946    1.000
    N2863    N        0.47689    0.37413    0.13897    1.000
    N2864    N        0.46689    0.29213    0.15599    1.000
    Si2865   Si       0.51687    0.48944    0.15517    1.000
    N2866    N        0.51059    0.45015    0.23537    1.000
    N2867    N        0.52121    0.42409    0.01318    1.000
    Si2868   Si       0.46142    0.25855    0.18631    1.000
    Si2869   Si       0.49477    0.32049    0.29142    1.000
    N2870    N        0.47229    0.35527    0.30895    1.000
    N2871    N        0.51321    0.29704    0.32338    1.000
    Si2872   Si       0.50726    0.38153    0.32363    1.000
    N2873    N        0.48019    0.39477    0.35541    1.000
    N2874    N        0.49415    0.48899    0.29513    1.000
    N2875    N        0.51531    0.45509    0.36458    1.000
    Si2876   Si       0.49114    0.48700    0.25047    1.000
    N2877    N        0.46321    0.27921    0.41404    1.000
    N2878    N        0.50223    0.36925    0.45350    1.000
    N2879    N        0.50871    0.33228    0.40001    1.000
    Si2880   Si       0.46610    0.32072    0.40565    1.000
    N2881    N        0.46211    0.27363    0.49096    1.000
    Si2882   Si       0.50942    0.41136    0.44227    1.000
    N2883    N        0.47490    0.42184    0.41755    1.000
    N2884    N        0.47949    0.49217    0.41542    1.000
    Si2885   Si       0.48129    0.47730    0.45659    1.000
    N2886    N        0.50979    0.44611    0.46680    1.000
    Si2887   Si       0.47864    0.43118    0.37700    1.000
    Si2888   Si       0.51401    0.49275    0.38834    1.000
    N2889    N        0.48108    0.28974    0.55524    1.000
    N2890    N        0.49662    0.37404    0.61688    1.000
    Si2891   Si       0.46234    0.28016    0.59398    1.000
    N2892    N        0.46379    0.34038    0.50657    1.000
    Si2893   Si       0.50761    0.33202    0.61928    1.000
    Si2894   Si       0.48852    0.43476    0.54361    1.000
    N2895    N        0.48854    0.43878    0.58708    1.000
    N2896    N        0.46916    0.46915    0.52737    1.000
    Si2897   Si       0.47035    0.39928    0.59345    1.000
    Si2898   Si       0.50137    0.49943    0.51955    1.000
    N2899    N        0.46884    0.39694    0.54842    1.000
    N2900    N        0.47692    0.50034    0.61859    1.000
    Si2901   Si       0.49642    0.46305    0.61991    1.000
    N2902    N        0.47337    0.30609    0.62539    1.000
    Si2903   Si       0.48752    0.34074    0.71012    1.000
    N2904    N        0.48614    0.37606    0.68225    1.000
    N2905    N        0.46632    0.36621    0.74146    1.000
    N2906    N        0.50122    0.42912    0.72178    1.000
    Si2907   Si       0.46858    0.40260    0.71442    1.000
    Si2908   Si       0.50652    0.39850    0.65242    1.000
    Si2909   Si       0.50459    0.47133    0.73161    1.000
    N2910    N        0.47970    0.43543    0.64980    1.000
    N2911    N        0.52118    0.50783    0.71470    1.000
    Si2912   Si       0.48534    0.36889    0.78282    1.000
    N2913    N        0.50451    0.32971    0.78210    1.000
    N2914    N        0.48612    0.27208    0.74740    1.000
    N2915    N        0.51536    0.28792    0.84658    1.000
    Si2916   Si       0.50145    0.45376    0.85100    1.000
    N2917    N        0.48726    0.48303    0.82189    1.000
    N2918    N        0.47879    0.41726    0.85680    1.000
    N2919    N        0.46636    0.48002    0.75319    1.000
    N2920    N        0.52129    0.39744    0.78777    1.000
    N2921    N        0.48842    0.34531    0.88269    1.000
    N2922    N        0.47504    0.29798    0.97194    1.000
    Si2923   Si       0.49100    0.30317    0.88191    1.000
    N2924    N        0.50161    0.37003    0.97293    1.000
    Si2925   Si       0.49485    0.26632    0.95154    1.000
    N2926    N        0.51508    0.28804    0.91946    1.000
    Si2927   Si       0.49958    0.32894    0.99355    1.000
    N2928    N        0.51163    0.47283    0.88737    1.000
    Si2929   Si       0.48952    0.47949    0.92317    1.000
    Si2930   Si       0.49486    0.44602    0.98929    1.000
    N2931    N        0.50940    0.44794    0.94664    1.000
    Si2932   Si       0.48761    0.38768    0.88824    1.000
    N2933    N        0.45876    0.27229    0.81344    1.000
    Si2934   Si       0.46264    0.38818    0.96361    1.000
    N2935    N        0.49686    0.54882    0.09605    1.000
    Si2936   Si       0.48453    0.57734    0.06445    1.000
    N2937    N        0.47206    0.55107    0.03320    1.000
    N2938    N        0.46191    0.61640    0.06542    1.000
    N2939    N        0.49895    0.72172    0.03317    1.000
    Si2940   Si       0.48084    0.65459    0.07453    1.000
    N2941    N        0.49734    0.74237    0.09832    1.000
    N2942    N        0.49432    0.64702    0.11632    1.000
    N2943    N        0.49810    0.53077    0.23166    1.000
    Si2944   Si       0.50574    0.57478    0.15576    1.000
    N2945    N        0.46663    0.59043    0.14740    1.000
    Si2946   Si       0.46164    0.55552    0.22553    1.000
    N2947    N        0.51423    0.53139    0.16296    1.000
    N2948    N        0.49562    0.71114    0.17172    1.000
    Si2949   Si       0.51282    0.73874    0.14157    1.000
    N2950    N        0.45636    0.60099    0.22308    1.000
    Si2951   Si       0.51973    0.74721    0.06188    1.000
    Si2952   Si       0.51840    0.68749    0.01618    1.000
    N2953    N        0.51525    0.65875    0.04840    1.000
    N2954    N        0.50412    0.60708    0.27467    1.000
    N2955    N        0.48615    0.58079    0.33629    1.000
    N2956    N        0.50433    0.52046    0.35829    1.000
    Si2957   Si       0.46765    0.54310    0.34810    1.000
    Si2958   Si       0.46546    0.61997    0.33511    1.000
    Si2959   Si       0.46098    0.59923    0.26825    1.000
    N2960    N        0.50139    0.64537    0.33866    1.000
    Si2961   Si       0.48839    0.69501    0.27492    1.000
    Si2962   Si       0.47546    0.67956    0.34783    1.000
    N2963    N        0.49429    0.73468    0.25539    1.000
    N2964    N        0.49797    0.58157    0.46000    1.000
    Si2965   Si       0.47054    0.55165    0.47661    1.000
    Si2966   Si       0.48106    0.62359    0.45632    1.000
    N2967    N        0.48793    0.51274    0.48059    1.000
    N2968    N        0.47151    0.75593    0.42422    1.000
    N2969    N        0.50796    0.65197    0.43390    1.000
    Si2970   Si       0.46478    0.74085    0.38257    1.000
    N2971    N        0.47861    0.72345    0.49164    1.000
    Si2972   Si       0.49483    0.69137    0.42100    1.000
    N2973    N        0.48755    0.70475    0.37953    1.000
    N2974    N        0.47581    0.64464    0.49541    1.000
    N2975    N        0.46213    0.67214    0.24905    1.000
    Si2976   Si       0.48228    0.56576    0.55042    1.000
    N2977    N        0.48509    0.56855    0.59579    1.000
    N2978    N        0.49963    0.52538    0.55616    1.000
    Si2979   Si       0.50141    0.52911    0.59859    1.000
    N2980    N        0.51480    0.59320    0.53450    1.000
    Si2981   Si       0.48940    0.62747    0.53188    1.000
    Si2982   Si       0.45677    0.60384    0.59897    1.000
    N2983    N        0.50101    0.71765    0.56346    1.000
    Si2984   Si       0.48322    0.68070    0.57815    1.000
    N2985    N        0.51220    0.65369    0.55851    1.000
    N2986    N        0.46749    0.64437    0.61146    1.000
    Si2987   Si       0.47360    0.74777    0.57439    1.000
    N2988    N        0.49454    0.57813    0.72631    1.000
    Si2989   Si       0.47449    0.58811    0.68891    1.000
    N2990    N        0.50183    0.60925    0.65985    1.000
    Si2991   Si       0.51649    0.54388    0.73893    1.000
    N2992    N        0.47203    0.55115    0.66641    1.000
    N2993    N        0.47191    0.68462    0.66991    1.000
    Si2994   Si       0.46985    0.72385    0.64929    1.000
    N2995    N        0.46657    0.74235    0.69523    1.000
    N2996    N        0.47293    0.64118    0.74419    1.000
    Si2997   Si       0.47200    0.70114    0.71190    1.000
    Si2998   Si       0.48853    0.64979    0.64906    1.000
    N2999    N        0.51173    0.73729    0.64794    1.000
    N3000    N        0.46393    0.70773    0.60807    1.000
    N3001    N        0.49353    0.53644    0.77542    1.000
    Si3002   Si       0.48734    0.60346    0.76256    1.000
    N3003    N        0.50113    0.61598    0.86296    1.000
    Si3004   Si       0.50932    0.51969    0.81221    1.000
    N3005    N        0.51210    0.54874    0.84465    1.000
    Si3006   Si       0.48748    0.57471    0.86745    1.000
    N3007    N        0.46768    0.75425    0.88619    1.000
    Si3008   Si       0.50423    0.63437    0.82395    1.000
    N3009    N        0.49700    0.72970    0.81757    1.000
    N3010    N        0.47958    0.70608    0.75857    1.000
    Si3011   Si       0.51156    0.70259    0.84906    1.000
    N3012    N        0.46521    0.64735    0.81075    1.000
    Si3013   Si       0.46349    0.73086    0.79073    1.000
    N3014    N        0.49999    0.57243    0.90912    1.000
    N3015    N        0.48040    0.59218    0.97209    1.000
    Si3016   Si       0.50693    0.62874    0.96685    1.000
    Si3017   Si       0.49988    0.55920    0.95025    1.000
    N3018    N        0.49026    0.51782    0.94126    1.000
    N3019    N        0.48435    0.68465    0.87683    1.000
    Si3020   Si       0.48109    0.64453    0.88860    1.000
    N3021    N        0.50710    0.64126    0.92447    1.000
    N3022    N        0.49535    0.66944    0.98151    1.000
    Si3023   Si       0.50409    0.68352    0.93849    1.000
    N3024    N        0.46542    0.70304    0.93882    1.000
    N3025    N        0.48283    0.85317    0.04935    1.000
    Si3026   Si       0.49112    0.78829    0.00849    1.000
    N3027    N        0.50514    0.78789    0.05084    1.000
    Si3028   Si       0.51405    0.82627    0.06298    1.000
    N3029    N        0.51619    0.83219    0.10787    1.000
    Si3030   Si       0.47928    0.88898    0.07551    1.000
    N3031    N        0.48398    0.96720    0.10806    1.000
    Si3032   Si       0.48100    0.95996    0.06540    1.000
    N3033    N        0.46774    0.93708    0.17693    1.000
    Si3034   Si       0.47598    0.83798    0.12563    1.000
    N3035    N        0.50566    0.77867    0.15599    1.000
    N3036    N        0.49282    0.79922    0.22005    1.000
    N3037    N        0.48572    0.84003    0.16775    1.000
    Si3038   Si       0.47693    0.79899    0.18114    1.000
    N3039    N        0.51437    0.88712    0.21106    1.000
    N3040    N        0.50409    0.00000    0.16751    1.000
    Si3041   Si       0.50026    0.00504    0.12476    1.000
    N3042    N        0.50143    0.95026    0.23803    1.000
    Si3043   Si       0.50496    0.92731    0.19998    1.000
    N3044    N        0.52023    0.89763    0.08431    1.000
    N3045    N        0.45761    0.98826    0.04193    1.000
    Si3046   Si       0.45816    0.95244    0.13880    1.000
    Si3047   Si       0.49252    0.83047    0.29269    1.000
    N3048    N        0.49897    0.83371    0.33588    1.000
    Si3049   Si       0.50487    0.87076    0.35723    1.000
    N3050    N        0.47131    0.77187    0.35184    1.000
    Si3051   Si       0.50805    0.79523    0.35633    1.000
    Si3052   Si       0.47718    0.77561    0.25680    1.000
    N3053    N        0.50563    0.86366    0.27180    1.000
    N3054    N        0.46822    0.93024    0.42455    1.000
    N3055    N        0.49468    0.90706    0.33404    1.000
    Si3056   Si       0.47484    0.98709    0.31900    1.000
    N3057    N        0.50777    0.97206    0.34812    1.000
    N3058    N        0.49513    0.00304    0.28126    1.000
    N3059    N        0.46569    0.82405    0.44396    1.000
    N3060    N        0.47801    0.87370    0.39051    1.000
    Si3061   Si       0.49314    0.79003    0.43416    1.000
    Si3062   Si       0.47375    0.86393    0.43159    1.000
    N3063    N        0.51579    0.78912    0.47181    1.000
    N3064    N        0.51470    0.80599    0.39936    1.000
    N3065    N        0.46404    0.95071    0.48342    1.000
    N3066    N        0.50585    0.98645    0.41965    1.000
    N3067    N        0.49221    0.88152    0.46624    1.000
    Si3068   Si       0.50506    0.94723    0.44122    1.000
    N3069    N        0.51814    0.79681    0.27841    1.000
    N3070    N        0.47973    0.84457    0.57522    1.000
    N3071    N        0.49170    0.77858    0.60446    1.000
    N3072    N        0.48674    0.77797    0.54224    1.000
    Si3073   Si       0.49987    0.80669    0.57020    1.000
    Si3074   Si       0.48738    0.86669    0.50653    1.000
    Si3075   Si       0.49725    0.76322    0.50275    1.000
    Si3076   Si       0.48921    0.88597    0.57510    1.000
    N3077    N        0.48296    0.89974    0.53522    1.000
    N3078    N        0.49355    0.97302    0.54173    1.000
    N3079    N        0.46796    0.91354    0.60190    1.000
    N3080    N        0.49314    0.99751    0.61175    1.000
    Si3081   Si       0.47053    0.93938    0.52603    1.000
    Si3082   Si       0.48002    0.00253    0.57040    1.000
    Si3083   Si       0.51399    0.99082    0.50699    1.000
    N3084    N        0.49162    0.79176    0.73074    1.000
    N3085    N        0.48503    0.80583    0.66698    1.000
    N3086    N        0.48680    0.85855    0.70846    1.000
    Si3087   Si       0.50852    0.84444    0.67316    1.000
    N3088    N        0.50720    0.87398    0.64143    1.000
    Si3089   Si       0.50145    0.76881    0.68900    1.000
    Si3090   Si       0.46193    0.79526    0.63001    1.000
    Si3091   Si       0.46286    0.82091    0.71393    1.000
    Si3092   Si       0.48194    0.88223    0.74546    1.000
    N3093    N        0.47579    0.00753    0.67859    1.000
    Si3094   Si       0.47922    0.97579    0.64525    1.000
    N3095    N        0.49896    0.92375    0.74106    1.000
    N3096    N        0.50029    0.94114    0.65750    1.000
    Si3097   Si       0.47706    0.90638    0.64417    1.000
    N3098    N        0.49599    0.86371    0.78108    1.000
    Si3099   Si       0.49483    0.84294    0.81877    1.000
    N3100    N        0.50271    0.80104    0.80059    1.000
    N3101    N        0.48783    0.86723    0.85951    1.000
    Si3102   Si       0.46356    0.80853    0.77866    1.000
    N3103    N        0.50689    0.90918    0.93346    1.000
    N3104    N        0.49097    0.98595    0.93419    1.000
    N3105    N        0.51137    0.97936    0.83171    1.000
    Si3106   Si       0.50730    0.95442    0.79693    1.000
    Si3107   Si       0.49879    0.91003    0.85014    1.000
    N3108    N        0.46506    0.96048    0.78813    1.000
    N3109    N        0.51584    0.91359    0.81007    1.000
    Si3110   Si       0.50816    0.87248    0.95751    1.000
    N3111    N        0.47157    0.87005    0.98074    1.000
    Si3112   Si       0.50927    0.76595    0.88186    1.000
    N3113    N        0.47496    0.77430    0.96950    1.000
    Si3114   Si       0.50510    0.79712    0.94797    1.000
    N3115    N        0.50492    0.83854    0.93055    1.000
    Si3116   Si       0.51359    0.84395    0.88764    1.000
    Si3117   Si       0.48295    0.94656    0.94746    1.000
    N3118    N        0.49282    0.94920    0.98963    1.000
    Si3119   Si       0.54333    0.05162    0.08448    1.000
    N3120    N        0.54806    0.11934    0.04776    1.000
    N3121    N        0.54812    0.05069    0.04246    1.000
    N3122    N        0.53749    0.01649    0.10668    1.000
    Si3123   Si       0.56509    0.08721    0.02452    1.000
    Si3124   Si       0.53407    0.03927    0.00330    1.000
    N3125    N        0.57628    0.07216    0.10226    1.000
    Si3126   Si       0.52916    0.20666    0.04643    1.000
    N3127    N        0.55681    0.18515    0.07400    1.000
    N3128    N        0.54447    0.18444    0.01222    1.000
    Si3129   Si       0.53787    0.16797    0.10867    1.000
    Si3130   Si       0.56739    0.15797    0.04058    1.000
    N3131    N        0.54307    0.24692    0.04892    1.000
    N3132    N        0.58032    0.25046    0.10728    1.000
    Si3133   Si       0.54946    0.09509    0.12994    1.000
    N3134    N        0.55168    0.08494    0.17049    1.000
    N3135    N        0.55065    0.08836    0.24596    1.000
    Si3136   Si       0.57446    0.08658    0.20718    1.000
    N3137    N        0.56752    0.24177    0.17847    1.000
    N3138    N        0.51897    0.16630    0.21956    1.000
    Si3139   Si       0.55633    0.18385    0.22757    1.000
    N3140    N        0.54638    0.22446    0.23780    1.000
    N3141    N        0.53501    0.19928    0.13889    1.000
    N3142    N        0.56312    0.13626    0.12576    1.000
    Si3143   Si       0.53383    0.24958    0.20561    1.000
    Si3144   Si       0.57318    0.20488    0.15650    1.000
    N3145    N        0.53695    0.06197    0.30823    1.000
    Si3146   Si       0.56584    0.12838    0.26389    1.000
    Si3147   Si       0.56914    0.06780    0.28224    1.000
    N3148    N        0.52492    0.13215    0.28055    1.000
    N3149    N        0.54335    0.02902    0.37057    1.000
    N3150    N        0.54272    0.22377    0.34194    1.000
    Si3151   Si       0.52838    0.19233    0.36830    1.000
    Si3152   Si       0.54050    0.25546    0.26644    1.000
    N3153    N        0.57918    0.25281    0.28760    1.000
    Si3154   Si       0.56866    0.02961    0.48232    1.000
    Si3155   Si       0.56203    0.07870    0.44434    1.000
    N3156    N        0.54089    0.03782    0.44997    1.000
    N3157    N        0.52690    0.10031    0.43572    1.000
    N3158    N        0.58284    0.19202    0.46179    1.000
    N3159    N        0.52444    0.16616    0.43950    1.000
    Si3160   Si       0.56557    0.16965    0.42846    1.000
    N3161    N        0.55089    0.13847    0.49680    1.000
    N3162    N        0.56782    0.17856    0.38471    1.000
    Si3163   Si       0.51914    0.05747    0.34825    1.000
    N3164    N        0.55401    0.08169    0.55535    1.000
    Si3165   Si       0.56192    0.10676    0.59190    1.000
    Si3166   Si       0.54036    0.04020    0.55384    1.000
    N3167    N        0.55609    0.02679    0.59344    1.000
    Si3168   Si       0.53753    0.11144    0.52939    1.000
    N3169    N        0.54767    0.01806    0.51693    1.000
    N3170    N        0.52281    0.11683    0.60788    1.000
    N3171    N        0.56073    0.19818    0.52866    1.000
    Si3172   Si       0.56185    0.24087    0.52915    1.000
    Si3173   Si       0.56326    0.18455    0.56924    1.000
    N3174    N        0.53693    0.25352    0.56332    1.000
    N3175    N        0.52109    0.18615    0.58311    1.000
    N3176    N        0.52730    0.25178    0.50128    1.000
    N3177    N        0.57613    0.14132    0.56809    1.000
    N3178    N        0.52230    0.04899    0.64927    1.000
    Si3179   Si       0.53259    0.01350    0.62708    1.000
    N3180    N        0.56494    0.12260    0.73908    1.000
    N3181    N        0.54494    0.11106    0.67148    1.000
    N3182    N        0.54088    0.01515    0.71430    1.000
    Si3183   Si       0.56572    0.25399    0.65715    1.000
    Si3184   Si       0.53770    0.13164    0.70797    1.000
    N3185    N        0.53985    0.23093    0.73303    1.000
    N3186    N        0.53244    0.17314    0.69453    1.000
    Si3187   Si       0.54585    0.21303    0.69216    1.000
    N3188    N        0.52581    0.23676    0.66117    1.000
    Si3189   Si       0.57898    0.17305    0.50031    1.000
    Si3190   Si       0.57417    0.25721    0.73051    1.000
    N3191    N        0.54453    0.03909    0.78383    1.000
    N3192    N        0.54029    0.08067    0.84326    1.000
    Si3193   Si       0.52891    0.00857    0.75534    1.000
    Si3194   Si       0.56364    0.14971    0.77403    1.000
    N3195    N        0.55655    0.19150    0.82221    1.000
    Si3196   Si       0.55160    0.21563    0.85900    1.000
    N3197    N        0.52137    0.16039    0.77526    1.000
    N3198    N        0.57364    0.25400    0.86093    1.000
    N3199    N        0.54499    0.10999    0.91978    1.000
    N3200    N        0.55274    0.07300    0.98345    1.000
    Si3201   Si       0.52657    0.08564    0.95099    1.000
    Si3202   Si       0.52366    0.00862    0.91623    1.000
    N3203    N        0.51596    0.04393    0.94017    1.000
    N3204    N        0.52129    0.24334    0.97870    1.000
    N3205    N        0.56516    0.18227    0.88386    1.000
    Si3206   Si       0.52254    0.19994    0.97780    1.000
    Si3207   Si       0.57442    0.18093    0.92573    1.000
    N3208    N        0.53647    0.17504    0.94519    1.000
    Si3209   Si       0.57996    0.09738    0.83635    1.000
    Si3210   Si       0.51875    0.06561    0.80529    1.000
    N3211    N        0.55066    0.36433    0.01779    1.000
    Si3212   Si       0.55099    0.27082    0.08416    1.000
    Si3213   Si       0.53249    0.32699    0.10266    1.000
    N3214    N        0.52964    0.30521    0.01336    1.000
    N3215    N        0.56879    0.31068    0.08382    1.000
    N3216    N        0.57198    0.37504    0.08055    1.000
    Si3217   Si       0.53529    0.38062    0.05695    1.000
    Si3218   Si       0.54343    0.26562    0.00993    1.000
    Si3219   Si       0.56981    0.32314    0.00214    1.000
    Si3220   Si       0.53912    0.44502    0.10142    1.000
    Si3221   Si       0.56738    0.50560    0.06532    1.000
    N3222    N        0.55577    0.47529    0.17050    1.000
    N3223    N        0.52353    0.41068    0.17935    1.000
    Si3224   Si       0.57182    0.33470    0.16238    1.000
    N3225    N        0.56095    0.33117    0.20458    1.000
    N3226    N        0.53426    0.34464    0.14418    1.000
    N3227    N        0.52364    0.28201    0.23421    1.000
    Si3228   Si       0.52324    0.32601    0.22580    1.000
    N3229    N        0.56997    0.42613    0.12726    1.000
    Si3230   Si       0.56151    0.43360    0.16842    1.000
    N3231    N        0.51617    0.41397    0.08251    1.000
    N3232    N        0.51428    0.48028    0.11313    1.000
    N3233    N        0.52641    0.50871    0.04931    1.000
    N3234    N        0.56287    0.39391    0.24489    1.000
    N3235    N        0.53753    0.35639    0.34243    1.000
    Si3236   Si       0.56097    0.36198    0.27461    1.000
    Si3237   Si       0.52993    0.31820    0.36329    1.000
    Si3238   Si       0.57318    0.38022    0.34695    1.000
    N3239    N        0.52403    0.34084    0.26761    1.000
    N3240    N        0.56634    0.42118    0.35354    1.000
    Si3241   Si       0.53804    0.44228    0.33002    1.000
    N3242    N        0.55752    0.48045    0.31717    1.000
    Si3243   Si       0.53850    0.42770    0.25840    1.000
    N3244    N        0.52747    0.41306    0.30012    1.000
    N3245    N        0.57478    0.45117    0.25815    1.000
    Si3246   Si       0.52546    0.50893    0.31927    1.000
    N3247    N        0.52141    0.26979    0.37973    1.000
    Si3248   Si       0.53466    0.34011    0.43989    1.000
    Si3249   Si       0.55529    0.27713    0.40816    1.000
    N3250    N        0.54512    0.29821    0.44483    1.000
    Si3251   Si       0.55121    0.28201    0.48286    1.000
    N3252    N        0.56971    0.30903    0.38124    1.000
    N3253    N        0.56776    0.35917    0.46870    1.000
    N3254    N        0.55254    0.48547    0.40749    1.000
    Si3255   Si       0.56309    0.44437    0.39413    1.000
    N3256    N        0.54979    0.41379    0.42369    1.000
    Si3257   Si       0.54243    0.44912    0.49466    1.000
    N3258    N        0.54559    0.30915    0.51558    1.000
    N3259    N        0.53709    0.32207    0.58257    1.000
    Si3260   Si       0.56152    0.36105    0.57977    1.000
    Si3261   Si       0.56638    0.30898    0.61559    1.000
    N3262    N        0.56963    0.37244    0.53952    1.000
    Si3263   Si       0.52346    0.29391    0.55218    1.000
    Si3264   Si       0.57612    0.34235    0.50943    1.000
    Si3265   Si       0.56500    0.41410    0.54878    1.000
    N3266    N        0.54383    0.49062    0.51042    1.000
    N3267    N        0.52774    0.42895    0.53025    1.000
    N3268    N        0.55665    0.40401    0.59001    1.000
    N3269    N        0.54750    0.40666    0.65986    1.000
    N3270    N        0.54131    0.46789    0.62170    1.000
    Si3271   Si       0.55506    0.31999    0.68766    1.000
    N3272    N        0.53827    0.32036    0.64743    1.000
    N3273    N        0.56878    0.28036    0.69299    1.000
    N3274    N        0.52666    0.32530    0.71991    1.000
    Si3275   Si       0.57563    0.39052    0.68867    1.000
    N3276    N        0.56408    0.39986    0.72954    1.000
    Si3277   Si       0.56146    0.42802    0.62517    1.000
    Si3278   Si       0.56440    0.50415    0.62802    1.000
    N3279    N        0.56117    0.28410    0.76386    1.000
    Si3280   Si       0.55592    0.29357    0.85223    1.000
    N3281    N        0.56499    0.37948    0.84009    1.000
    Si3282   Si       0.52103    0.29949    0.75609    1.000
    N3283    N        0.54526    0.45224    0.83722    1.000
    Si3284   Si       0.56308    0.47088    0.79598    1.000
    Si3285   Si       0.54955    0.41234    0.81689    1.000
    N3286    N        0.53450    0.46210    0.76326    1.000
    Si3287   Si       0.53137    0.41890    0.75210    1.000
    N3288    N        0.56468    0.33062    0.95801    1.000
    Si3289   Si       0.55712    0.36922    0.88121    1.000
    Si3290   Si       0.55742    0.30372    0.92231    1.000
    N3291    N        0.55741    0.32417    0.88503    1.000
    N3292    N        0.57393    0.45218    0.90413    1.000
    N3293    N        0.56410    0.40743    0.96023    1.000
    Si3294   Si       0.54332    0.42910    0.92682    1.000
    Si3295   Si       0.53570    0.39164    0.98878    1.000
    N3296    N        0.55526    0.48811    0.99222    1.000
    N3297    N        0.52865    0.39892    0.89804    1.000
    Si3298   Si       0.55276    0.47780    0.87422    1.000
    Si3299   Si       0.53602    0.56853    0.09585    1.000
    N3300    N        0.56724    0.54077    0.09044    1.000
    Si3301   Si       0.54350    0.62568    0.03875    1.000
    N3302    N        0.52660    0.59066    0.06006    1.000
    Si3303   Si       0.52153    0.51221    0.00599    1.000
    N3304    N        0.54232    0.65105    0.16901    1.000
    N3305    N        0.54895    0.70063    0.21930    1.000
    N3306    N        0.57639    0.64471    0.10803    1.000
    N3307    N        0.56389    0.74663    0.06013    1.000
    N3308    N        0.55826    0.70354    0.00537    1.000
    Si3309   Si       0.57805    0.67015    0.22931    1.000
    Si3310   Si       0.53608    0.73324    0.24380    1.000
    Si3311   Si       0.53545    0.69171    0.17997    1.000
    N3312    N        0.53742    0.59360    0.12957    1.000
    Si3313   Si       0.52956    0.54065    0.20399    1.000
    Si3314   Si       0.55182    0.61710    0.19214    1.000
    N3315    N        0.56621    0.52583    0.21825    1.000
    N3316    N        0.56413    0.62876    0.23319    1.000
    N3317    N        0.52468    0.58355    0.19488    1.000
    N3318    N        0.55160    0.71765    0.14723    1.000
    Si3319   Si       0.53715    0.63691    0.12740    1.000
    N3320    N        0.55467    0.61727    0.31152    1.000
    N3321    N        0.54287    0.54732    0.30658    1.000
    Si3322   Si       0.52218    0.58629    0.30939    1.000
    Si3323   Si       0.56800    0.72018    0.42067    1.000
    Si3324   Si       0.54133    0.63507    0.27286    1.000
    Si3325   Si       0.54407    0.64245    0.34747    1.000
    N3326    N        0.55148    0.73515    0.28481    1.000
    N3327    N        0.56065    0.68088    0.33953    1.000
    Si3328   Si       0.56585    0.69732    0.29975    1.000
    N3329    N        0.52651    0.67396    0.27830    1.000
    Si3330   Si       0.54508    0.57868    0.46182    1.000
    N3331    N        0.55310    0.62450    0.38644    1.000
    N3332    N        0.56783    0.61571    0.44959    1.000
    N3333    N        0.55817    0.55823    0.42547    1.000
    Si3334   Si       0.57668    0.59484    0.40965    1.000
    Si3335   Si       0.57735    0.51931    0.42130    1.000
    Si3336   Si       0.57689    0.75715    0.49304    1.000
    N3337    N        0.52736    0.71653    0.43149    1.000
    Si3338   Si       0.54935    0.64849    0.42311    1.000
    Si3339   Si       0.55658    0.58541    0.53272    1.000
    N3340    N        0.57088    0.62423    0.52060    1.000
    Si3341   Si       0.57534    0.51880    0.50266    1.000
    N3342    N        0.55939    0.55831    0.49774    1.000
    Si3343   Si       0.55574    0.65081    0.55124    1.000
    Si3344   Si       0.54224    0.72379    0.55150    1.000
    N3345    N        0.56704    0.69018    0.54032    1.000
    N3346    N        0.53891    0.74687    0.51398    1.000
    N3347    N        0.56112    0.74519    0.58613    1.000
    N3348    N        0.53483    0.53622    0.62683    1.000
    Si3349   Si       0.56265    0.52287    0.70293    1.000
    N3350    N        0.55820    0.59995    0.63183    1.000
    N3351    N        0.54900    0.56071    0.68833    1.000
    Si3352   Si       0.56956    0.59095    0.71544    1.000
    Si3353   Si       0.52935    0.57417    0.65037    1.000
    N3354    N        0.55468    0.63119    0.70044    1.000
    N3355    N        0.57336    0.71953    0.67264    1.000
    Si3356   Si       0.53158    0.70449    0.66805    1.000
    N3357    N        0.53008    0.66698    0.64728    1.000
    Si3358   Si       0.56813    0.65003    0.73829    1.000
    Si3359   Si       0.55749    0.63537    0.65873    1.000
    N3360    N        0.57686    0.57247    0.56820    1.000
    N3361    N        0.51778    0.70083    0.70836    1.000
    N3362    N        0.55935    0.54731    0.74651    1.000
    Si3363   Si       0.55567    0.55257    0.85131    1.000
    Si3364   Si       0.56380    0.60465    0.79479    1.000
    N3365    N        0.55128    0.51230    0.80651    1.000
    N3366    N        0.57900    0.57029    0.81522    1.000
    N3367    N        0.57558    0.61106    0.75325    1.000
    N3368    N        0.52122    0.61003    0.79126    1.000
    Si3369   Si       0.52235    0.70855    0.75060    1.000
    N3370    N        0.53069    0.66934    0.83067    1.000
    Si3371   Si       0.56663    0.67406    0.80704    1.000
    N3372    N        0.54905    0.67661    0.76711    1.000
    N3373    N        0.53389    0.74979    0.76301    1.000
    Si3374   Si       0.57512    0.73624    0.84907    1.000
    N3375    N        0.56932    0.51817    0.87498    1.000
    N3376    N        0.55350    0.59623    0.93848    1.000
    N3377    N        0.52988    0.54902    0.98346    1.000
    N3378    N        0.56405    0.58616    0.87785    1.000
    Si3379   Si       0.53051    0.60456    0.90290    1.000
    Si3380   Si       0.55720    0.58433    0.97977    1.000
    N3381    N        0.53424    0.73084    0.87192    1.000
    Si3382   Si       0.55648    0.73809    0.91538    1.000
    N3383    N        0.54302    0.70085    0.93759    1.000
    N3384    N        0.53707    0.61949    0.99710    1.000
    N3385    N        0.55439    0.84097    0.04569    1.000
    Si3386   Si       0.54205    0.87038    0.11117    1.000
    Si3387   Si       0.55415    0.83451    0.00157    1.000
    Si3388   Si       0.54452    0.93294    0.07817    1.000
    Si3389   Si       0.53048    0.95883    0.00884    1.000
    N3390    N        0.56488    0.93383    0.00180    1.000
    N3391    N        0.55333    0.95151    0.11628    1.000
    N3392    N        0.52082    0.95648    0.05097    1.000
    Si3393   Si       0.56883    0.99083    0.12237    1.000
    Si3394   Si       0.56015    0.92677    0.15176    1.000
    N3395    N        0.56387    0.77913    0.12077    1.000
    Si3396   Si       0.53214    0.80613    0.23776    1.000
    Si3397   Si       0.53316    0.80285    0.13569    1.000
    N3398    N        0.55374    0.82905    0.16569    1.000
    N3399    N        0.55653    0.84247    0.23518    1.000
    N3400    N        0.55535    0.77066    0.23125    1.000
    Si3401   Si       0.52479    0.85725    0.17879    1.000
    Si3402   Si       0.53752    0.87854    0.24698    1.000
    N3403    N        0.54247    0.94474    0.18561    1.000
    N3404    N        0.57288    0.00138    0.16326    1.000
    Si3405   Si       0.53988    0.98772    0.18853    1.000
    N3406    N        0.54454    0.00028    0.22935    1.000
    N3407    N        0.53670    0.89037    0.15003    1.000
    N3408    N        0.54713    0.78264    0.34168    1.000
    Si3409   Si       0.55227    0.77657    0.29836    1.000
    N3410    N        0.54387    0.86153    0.37223    1.000
    N3411    N        0.53330    0.96263    0.47924    1.000
    N3412    N        0.54515    0.95911    0.29199    1.000
    N3413    N        0.56229    0.91448    0.33283    1.000
    N3414    N        0.56886    0.90571    0.26002    1.000
    Si3415   Si       0.52448    0.93870    0.32863    1.000
    Si3416   Si       0.52463    0.98031    0.26006    1.000
    Si3417   Si       0.57691    0.93085    0.29458    1.000
    N3418    N        0.54671    0.84927    0.44476    1.000
    Si3419   Si       0.54159    0.82238    0.48112    1.000
    Si3420   Si       0.54796    0.83170    0.40365    1.000
    N3421    N        0.56482    0.96567    0.39628    1.000
    Si3422   Si       0.57306    0.94533    0.47901    1.000
    Si3423   Si       0.52778    0.98993    0.38306    1.000
    N3424    N        0.56783    0.90473    0.48920    1.000
    Si3425   Si       0.57231    0.92505    0.40966    1.000
    Si3426   Si       0.53655    0.88782    0.46283    1.000
    N3427    N        0.53675    0.91658    0.43208    1.000
    N3428    N        0.54335    0.81443    0.57233    1.000
    Si3429   Si       0.54797    0.85241    0.54826    1.000
    N3430    N        0.52366    0.84552    0.51282    1.000
    Si3431   Si       0.57361    0.80975    0.60185    1.000
    N3432    N        0.53294    0.88334    0.57551    1.000
    Si3433   Si       0.54520    0.88156    0.61946    1.000
    Si3434   Si       0.53094    0.76063    0.61570    1.000
    N3435    N        0.55434    0.79024    0.63594    1.000
    N3436    N        0.54610    0.83980    0.68988    1.000
    N3437    N        0.54552    0.77125    0.70102    1.000
    Si3438   Si       0.56375    0.80455    0.67544    1.000
    Si3439   Si       0.56528    0.85344    0.72999    1.000
    Si3440   Si       0.53324    0.78582    0.74131    1.000
    Si3441   Si       0.54108    0.93016    0.74111    1.000
    N3442    N        0.54867    0.98526    0.65555    1.000
    N3443    N        0.56512    0.91620    0.63884    1.000
    N3444    N        0.56373    0.94056    0.70451    1.000
    Si3445   Si       0.57339    0.00191    0.68697    1.000
    Si3446   Si       0.54391    0.94350    0.66565    1.000
    N3447    N        0.53907    0.84763    0.82445    1.000
    N3448    N        0.55710    0.76944    0.82686    1.000
    Si3449   Si       0.55284    0.80846    0.83964    1.000
    Si3450   Si       0.57200    0.86448    0.85102    1.000
    N3451    N        0.55804    0.81781    0.75313    1.000
    Si3452   Si       0.54158    0.88152    0.79514    1.000
    N3453    N        0.55278    0.88828    0.75368    1.000
    N3454    N        0.53786    0.96768    0.76897    1.000
    Si3455   Si       0.54518    0.96796    0.85933    1.000
    N3456    N        0.54721    0.99868    0.99652    1.000
    N3457    N        0.52558    0.76893    0.92343    1.000
    N3458    N        0.54687    0.87120    0.97818    1.000
    N3459    N        0.54948    0.86727    0.88886    1.000
    N3460    N        0.52602    0.80428    0.98793    1.000
    Si3461   Si       0.57638    0.90302    0.97158    1.000
    N3462    N        0.57390    0.92054    0.93210    1.000
    N3463    N        0.53062    0.93009    0.87404    1.000
    N3464    N        0.55817    0.98392    0.90072    1.000
    Si3465   Si       0.54152    0.90565    0.90834    1.000
    Si3466   Si       0.57923    0.96955    0.78754    1.000
    Si3467   Si       0.52177    0.76262    0.80277    1.000
    N3468    N        0.52040    0.80651    0.86955    1.000
    Si3469   Si       0.62108    0.07640    0.10227    1.000
    N3470    N        0.60452    0.09430    0.00793    1.000
    N3471    N        0.62116    0.12289    0.09324    1.000
    N3472    N        0.62876    0.04755    0.06490    1.000
    Si3473   Si       0.63101    0.12488    0.01991    1.000
    N3474    N        0.62629    0.22215    0.06769    1.000
    N3475    N        0.61054    0.16028    0.03475    1.000
    Si3476   Si       0.58903    0.21061    0.08974    1.000
    Si3477   Si       0.58463    0.01880    0.23580    1.000
    N3478    N        0.60276    0.11839    0.22100    1.000
    N3479    N        0.59663    0.05213    0.20852    1.000
    Si3480   Si       0.61376    0.02413    0.17863    1.000
    N3481    N        0.62114    0.05430    0.14275    1.000
    N3482    N        0.60031    0.19053    0.12522    1.000
    Si3483   Si       0.60588    0.14737    0.12562    1.000
    N3484    N        0.63482    0.25115    0.16037    1.000
    N3485    N        0.63543    0.14154    0.15775    1.000
    Si3486   Si       0.61437    0.15338    0.19665    1.000
    N3487    N        0.57998    0.17868    0.19094    1.000
    N3488    N        0.60335    0.05682    0.34132    1.000
    N3489    N        0.59601    0.10411    0.28992    1.000
    Si3490   Si       0.61730    0.09822    0.33104    1.000
    Si3491   Si       0.61583    0.02882    0.30968    1.000
    N3492    N        0.59170    0.03174    0.27511    1.000
    Si3493   Si       0.62844    0.11691    0.25887    1.000
    N3494    N        0.60454    0.12641    0.36124    1.000
    Si3495   Si       0.61537    0.18196    0.27989    1.000
    N3496    N        0.59863    0.19108    0.31789    1.000
    Si3497   Si       0.60289    0.16926    0.35883    1.000
    N3498    N        0.60937    0.25116    0.35174    1.000
    N3499    N        0.63353    0.21599    0.25975    1.000
    Si3500   Si       0.58115    0.23048    0.32448    1.000
    N3501    N        0.58233    0.16630    0.25843    1.000
    Si3502   Si       0.58493    0.04283    0.37817    1.000
    N3503    N        0.58749    0.06859    0.47946    1.000
    Si3504   Si       0.60759    0.10883    0.40146    1.000
    N3505    N        0.58434    0.07345    0.40696    1.000
    N3506    N        0.61064    0.01136    0.39606    1.000
    N3507    N        0.58972    0.13323    0.43171    1.000
    N3508    N        0.63829    0.22117    0.48079    1.000
    N3509    N        0.58261    0.24416    0.41901    1.000
    N3510    N        0.63270    0.19402    0.37830    1.000
    Si3511   Si       0.60036    0.23081    0.45728    1.000
    Si3512   Si       0.61316    0.23144    0.39050    1.000
    Si3513   Si       0.61760    0.25808    0.26468    1.000
    N3514    N        0.62080    0.02655    0.51831    1.000
    Si3515   Si       0.59045    0.04295    0.61637    1.000
    N3516    N        0.62288    0.09332    0.54040    1.000
    Si3517   Si       0.62165    0.06828    0.50581    1.000
    N3518    N        0.63034    0.03245    0.59449    1.000
    N3519    N        0.58635    0.08675    0.61929    1.000
    Si3520   Si       0.61705    0.13519    0.55236    1.000
    N3521    N        0.59273    0.20141    0.59550    1.000
    N3522    N        0.61804    0.16412    0.51745    1.000
    Si3523   Si       0.60515    0.24292    0.59028    1.000
    Si3524   Si       0.61860    0.17145    0.61453    1.000
    N3525    N        0.60034    0.25274    0.54850    1.000
    N3526    N        0.61731    0.24630    0.73059    1.000
    Si3527   Si       0.58582    0.10733    0.65808    1.000
    N3528    N        0.59337    0.03245    0.65922    1.000
    Si3529   Si       0.62343    0.05540    0.68196    1.000
    Si3530   Si       0.60281    0.09896    0.73574    1.000
    N3531    N        0.60514    0.09163    0.69348    1.000
    Si3532   Si       0.62717    0.01604    0.74325    1.000
    N3533    N        0.58649    0.21898    0.67706    1.000
    Si3534   Si       0.62458    0.22076    0.69601    1.000
    N3535    N        0.59948    0.14686    0.64422    1.000
    N3536    N        0.60034    0.06158    0.82017    1.000
    Si3537   Si       0.58776    0.04299    0.78447    1.000
    N3538    N        0.60905    0.05872    0.75004    1.000
    Si3539   Si       0.63372    0.04439    0.84099    1.000
    N3540    N        0.59350    0.12172    0.87024    1.000
    N3541    N        0.59617    0.21178    0.94754    1.000
    N3542    N        0.57612    0.13167    0.81161    1.000
    N3543    N        0.60545    0.24529    0.79905    1.000
    Si3544   Si       0.59609    0.20509    0.80324    1.000
    N3545    N        0.59234    0.18101    0.76481    1.000
    N3546    N        0.61507    0.18573    0.83612    1.000
    Si3547   Si       0.58290    0.15977    0.84854    1.000
    Si3548   Si       0.63171    0.17101    0.74887    1.000
    N3549    N        0.60704    0.08169    0.93238    1.000
    N3550    N        0.61389    0.03147    0.98104    1.000
    Si3551   Si       0.59669    0.06946    0.97284    1.000
    Si3552   Si       0.58721    0.11455    0.91087    1.000
    N3553    N        0.63381    0.22553    0.89299    1.000
    Si3554   Si       0.59787    0.25404    0.95984    1.000
    N3555    N        0.60564    0.14890    0.93036    1.000
    N3556    N        0.63463    0.12784    0.74602    1.000
    N3557    N        0.60720    0.33165    0.02533    1.000
    Si3558   Si       0.59690    0.34065    0.06744    1.000
    Si3559   Si       0.59603    0.41928    0.23428    1.000
    N3560    N        0.57567    0.46603    0.08014    1.000
    N3561    N        0.60825    0.44411    0.01233    1.000
    Si3562   Si       0.60571    0.44863    0.10631    1.000
    N3563    N        0.62696    0.40905    0.10308    1.000
    Si3564   Si       0.59576    0.48541    0.00491    1.000
    Si3565   Si       0.59090    0.38834    0.11575    1.000
    Si3566   Si       0.61177    0.27096    0.12747    1.000
    N3567    N        0.62904    0.35005    0.21220    1.000
    Si3568   Si       0.59821    0.32095    0.22508    1.000
    N3569    N        0.60696    0.27848    0.22685    1.000
    N3570    N        0.59949    0.36563    0.15105    1.000
    N3571    N        0.59396    0.29896    0.15581    1.000
    Si3572   Si       0.60290    0.26527    0.18477    1.000
    N3573    N        0.63347    0.46144    0.13885    1.000
    Si3574   Si       0.58586    0.50269    0.18539    1.000
    N3575    N        0.62198    0.49712    0.21296    1.000
    N3576    N        0.60015    0.42801    0.19163    1.000
    Si3577   Si       0.61914    0.34281    0.29715    1.000
    N3578    N        0.61683    0.32129    0.33426    1.000
    N3579    N        0.59106    0.32993    0.26602    1.000
    N3580    N        0.58922    0.37476    0.30672    1.000
    N3581    N        0.58061    0.43049    0.48508    1.000
    Si3582   Si       0.63285    0.44913    0.35010    1.000
    N3583    N        0.62129    0.45183    0.30884    1.000
    Si3584   Si       0.59035    0.47616    0.28922    1.000
    N3585    N        0.63515    0.41008    0.24963    1.000
    N3586    N        0.60014    0.37200    0.37904    1.000
    Si3587   Si       0.60744    0.32819    0.37662    1.000
    N3588    N        0.58680    0.25730    0.48793    1.000
    N3589    N        0.63305    0.31597    0.40822    1.000
    N3590    N        0.61866    0.39829    0.43848    1.000
    Si3591   Si       0.57810    0.39853    0.45380    1.000
    Si3592   Si       0.63094    0.48784    0.39736    1.000
    Si3593   Si       0.62040    0.40659    0.39657    1.000
    Si3594   Si       0.63636    0.50419    0.46967    1.000
    N3595    N        0.60650    0.44956    0.39169    1.000
    N3596    N        0.61400    0.31936    0.52051    1.000
    N3597    N        0.59207    0.34263    0.60500    1.000
    Si3598   Si       0.62166    0.27430    0.51002    1.000
    N3599    N        0.58318    0.26938    0.61983    1.000
    Si3600   Si       0.63475    0.34967    0.60856    1.000
    Si3601   Si       0.61852    0.43575    0.51068    1.000
    Si3602   Si       0.61059    0.46365    0.58640    1.000
    N3603    N        0.59911    0.44108    0.55003    1.000
    N3604    N        0.59550    0.50487    0.59614    1.000
    N3605    N        0.58664    0.34787    0.68953    1.000
    Si3606   Si       0.62965    0.35972    0.68467    1.000
    N3607    N        0.61565    0.40085    0.67822    1.000
    N3608    N        0.60280    0.44308    0.62462    1.000
    Si3609   Si       0.63224    0.43224    0.65491    1.000
    Si3610   Si       0.62265    0.50185    0.67860    1.000
    N3611    N        0.64002    0.46410    0.68600    1.000
    N3612    N        0.58047    0.50354    0.66826    1.000
    Si3613   Si       0.59600    0.28755    0.78845    1.000
    N3614    N        0.60517    0.36426    0.77972    1.000
    Si3615   Si       0.59446    0.35316    0.82091    1.000
    N3616    N        0.62926    0.36265    0.84704    1.000
    N3617    N        0.63192    0.30229    0.77087    1.000
    N3618    N        0.58225    0.31139    0.82180    1.000
    Si3619   Si       0.59511    0.39963    0.76005    1.000
    N3620    N        0.59812    0.48766    0.77375    1.000
    Si3621   Si       0.62323    0.45444    0.77902    1.000
    N3622    N        0.58281    0.42873    0.79043    1.000
    N3623    N        0.62940    0.42315    0.74715    1.000
    N3624    N        0.63234    0.29536    0.87911    1.000
    N3625    N        0.58732    0.27378    0.92269    1.000
    N3626    N        0.61816    0.37660    0.97046    1.000
    Si3627   Si       0.58276    0.36680    0.94820    1.000
    Si3628   Si       0.60860    0.26173    0.88656    1.000
    N3629    N        0.59181    0.37679    0.90718    1.000
    Si3630   Si       0.62878    0.38045    0.88775    1.000
    N3631    N        0.63411    0.49195    0.89694    1.000
    Si3632   Si       0.60590    0.41901    0.97676    1.000
    N3633    N        0.62344    0.50115    0.97540    1.000
    N3634    N        0.63010    0.44349    0.94869    1.000
    Si3635   Si       0.61754    0.45289    0.90829    1.000
    N3636    N        0.58245    0.27640    0.99224    1.000
    Si3637   Si       0.61662    0.59935    0.01790    1.000
    N3638    N        0.58716    0.62501    0.04233    1.000
    N3639    N        0.63421    0.52832    0.09901    1.000
    Si3640   Si       0.59967    0.54590    0.11676    1.000
    N3641    N        0.60334    0.51044    0.03897    1.000
    Si3642   Si       0.60180    0.65164    0.07258    1.000
    N3643    N        0.61174    0.73806    0.10812    1.000
    N3644    N        0.61083    0.69117    0.05876    1.000
    N3645    N        0.61173    0.74849    0.01151    1.000
    Si3646   Si       0.58778    0.72109    0.03447    1.000
    N3647    N        0.61624    0.58672    0.12205    1.000
    Si3648   Si       0.60446    0.60182    0.23071    1.000
    N3649    N        0.59368    0.53566    0.15845    1.000
    N3650    N        0.59221    0.60514    0.17903    1.000
    N3651    N        0.62495    0.56458    0.21607    1.000
    Si3652   Si       0.60119    0.62486    0.14041    1.000
    Si3653   Si       0.61679    0.56898    0.17033    1.000
    Si3654   Si       0.60591    0.53103    0.23738    1.000
    N3655    N        0.63552    0.63115    0.24034    1.000
    N3656    N        0.61035    0.68402    0.20574    1.000
    Si3657   Si       0.62249    0.72581    0.20625    1.000
    Si3658   Si       0.58338    0.74577    0.14075    1.000
    N3659    N        0.63381    0.65288    0.14713    1.000
    N3660    N        0.60608    0.75483    0.17700    1.000
    N3661    N        0.60144    0.57012    0.33336    1.000
    N3662    N        0.59426    0.58209    0.27070    1.000
    Si3663   Si       0.59835    0.60613    0.30952    1.000
    N3664    N        0.60206    0.51555    0.27845    1.000
    Si3665   Si       0.58475    0.54950    0.29878    1.000
    Si3666   Si       0.62369    0.55890    0.36856    1.000
    N3667    N        0.62592    0.63885    0.31212    1.000
    N3668    N        0.60432    0.71939    0.31754    1.000
    Si3669   Si       0.59565    0.70303    0.35681    1.000
    N3670    N        0.58896    0.67246    0.27160    1.000
    Si3671   Si       0.63076    0.65746    0.27376    1.000
    N3672    N        0.62739    0.67710    0.37175    1.000
    Si3673   Si       0.63454    0.73027    0.28777    1.000
    N3674    N        0.62071    0.74482    0.24681    1.000
    N3675    N        0.59328    0.51236    0.46229    1.000
    N3676    N        0.60766    0.52360    0.38901    1.000
    N3677    N        0.61804    0.58878    0.40065    1.000
    Si3678   Si       0.59506    0.62794    0.48293    1.000
    N3679    N        0.63419    0.60809    0.48463    1.000
    N3680    N        0.61428    0.66700    0.48947    1.000
    Si3681   Si       0.62356    0.67910    0.41423    1.000
    Si3682   Si       0.62714    0.75155    0.44174    1.000
    N3683    N        0.58600    0.74511    0.45245    1.000
    N3684    N        0.58331    0.73409    0.38208    1.000
    N3685    N        0.58038    0.68011    0.41949    1.000
    N3686    N        0.60649    0.52170    0.53189    1.000
    Si3687   Si       0.60293    0.53818    0.57118    1.000
    Si3688   Si       0.58637    0.59915    0.60012    1.000
    N3689    N        0.62631    0.59717    0.61735    1.000
    N3690    N        0.60881    0.73662    0.72956    1.000
    N3691    N        0.60729    0.73543    0.51632    1.000
    Si3692   Si       0.60561    0.69301    0.52202    1.000
    Si3693   Si       0.61745    0.66787    0.59190    1.000
    N3694    N        0.60440    0.70405    0.61181    1.000
    Si3695   Si       0.60413    0.74538    0.59424    1.000
    N3696    N        0.58453    0.64124    0.58411    1.000
    N3697    N        0.63447    0.68082    0.55206    1.000
    N3698    N        0.61247    0.58892    0.70321    1.000
    N3699    N        0.61777    0.52268    0.71585    1.000
    Si3700   Si       0.62754    0.62786    0.71731    1.000
    Si3701   Si       0.63295    0.62838    0.64671    1.000
    N3702    N        0.59634    0.65110    0.65496    1.000
    N3703    N        0.60770    0.66534    0.72698    1.000
    Si3704   Si       0.63088    0.70034    0.72014    1.000
    Si3705   Si       0.58537    0.75270    0.69807    1.000
    Si3706   Si       0.60316    0.69432    0.65428    1.000
    Si3707   Si       0.62280    0.56673    0.81772    1.000
    N3708    N        0.62478    0.54435    0.78124    1.000
    N3709    N        0.63121    0.55093    0.85823    1.000
    Si3710   Si       0.63016    0.51182    0.75491    1.000
    Si3711   Si       0.63163    0.63396    0.79315    1.000
    Si3712   Si       0.57984    0.53471    0.78270    1.000
    N3713    N        0.59136    0.63802    0.80791    1.000
    N3714    N        0.59170    0.70268    0.82635    1.000
    Si3715   Si       0.63370    0.69007    0.83693    1.000
    Si3716   Si       0.58878    0.58984    0.91452    1.000
    Si3717   Si       0.62156    0.54414    0.96513    1.000
    Si3718   Si       0.60968    0.52698    0.88869    1.000
    N3719    N        0.59739    0.57315    0.98857    1.000
    N3720    N        0.61849    0.62112    0.91891    1.000
    N3721    N        0.60944    0.55198    0.92304    1.000
    N3722    N        0.59074    0.75055    0.88852    1.000
    N3723    N        0.61140    0.68157    0.96223    1.000
    Si3724   Si       0.63122    0.64089    0.95625    1.000
    N3725    N        0.58456    0.74684    0.95158    1.000
    Si3726   Si       0.57605    0.70528    0.96629    1.000
    N3727    N        0.61217    0.80326    0.07823    1.000
    N3728    N        0.62375    0.86247    0.04771    1.000
    Si3729   Si       0.59225    0.84147    0.07012    1.000
    Si3730   Si       0.58958    0.76927    0.08648    1.000
    Si3731   Si       0.62210    0.85318    0.00504    1.000
    N3732    N        0.58181    0.85687    0.10844    1.000
    N3733    N        0.59424    0.81913    0.99904    1.000
    Si3734   Si       0.59848    0.94181    0.02924    1.000
    Si3735   Si       0.61013    0.93893    0.10356    1.000
    N3736    N        0.60271    0.98559    0.03299    1.000
    N3737    N        0.60604    0.98700    0.10188    1.000
    N3738    N        0.58628    0.92679    0.06742    1.000
    Si3739   Si       0.62387    0.00410    0.06639    1.000
    Si3740   Si       0.59241    0.84291    0.14986    1.000
    N3741    N        0.61228    0.80866    0.21533    1.000
    N3742    N        0.60428    0.87086    0.18259    1.000
    Si3743   Si       0.59734    0.85055    0.21939    1.000
    N3744    N        0.62568    0.81513    0.14453    1.000
    Si3745   Si       0.62951    0.79127    0.17989    1.000
    Si3746   Si       0.59526    0.78243    0.24614    1.000
    N3747    N        0.61308    0.99325    0.21641    1.000
    Si3748   Si       0.62607    0.90742    0.17793    1.000
    N3749    N        0.60355    0.92248    0.14407    1.000
    N3750    N        0.62655    0.92767    0.21801    1.000
    N3751    N        0.60843    0.86001    0.32610    1.000
    N3752    N        0.58966    0.79654    0.28772    1.000
    Si3753   Si       0.61850    0.81884    0.31308    1.000
    N3754    N        0.62454    0.79501    0.35135    1.000
    Si3755   Si       0.58413    0.77618    0.36639    1.000
    Si3756   Si       0.57857    0.87942    0.35443    1.000
    N3757    N        0.62187    0.86402    0.25136    1.000
    N3758    N        0.61945    0.92511    0.29456    1.000
    N3759    N        0.62332    0.99164    0.32996    1.000
    Si3760   Si       0.61409    0.90605    0.25325    1.000
    N3761    N        0.57912    0.79975    0.49022    1.000
    Si3762   Si       0.62434    0.81381    0.39038    1.000
    N3763    N        0.58162    0.81022    0.39527    1.000
    N3764    N        0.60092    0.94006    0.44255    1.000
    N3765    N        0.63541    0.89602    0.48384    1.000
    N3766    N        0.59357    0.99935    0.46454    1.000
    Si3767   Si       0.59538    0.98334    0.42442    1.000
    N3768    N        0.59853    0.89548    0.39034    1.000
    Si3769   Si       0.62107    0.98813    0.49799    1.000
    Si3770   Si       0.63851    0.89124    0.31813    1.000
    N3771    N        0.61039    0.78799    0.60023    1.000
    N3772    N        0.58890    0.85370    0.53008    1.000
    Si3773   Si       0.61088    0.82057    0.51044    1.000
    N3774    N        0.62928    0.95192    0.66275    1.000
    N3775    N        0.60884    0.98752    0.71169    1.000
    Si3776   Si       0.60249    0.89292    0.51413    1.000
    N3777    N        0.59235    0.95907    0.51689    1.000
    N3778    N        0.62074    0.91021    0.55074    1.000
    Si3779   Si       0.61083    0.95258    0.55651    1.000
    N3780    N        0.59634    0.95931    0.59542    1.000
    Si3781   Si       0.61889    0.86181    0.62265    1.000
    N3782    N        0.60367    0.79225    0.68735    1.000
    N3783    N        0.60754    0.85546    0.72040    1.000
    Si3784   Si       0.62898    0.82659    0.69539    1.000
    N3785    N        0.63579    0.91432    0.71482    1.000
    N3786    N        0.63121    0.90167    0.61938    1.000
    Si3787   Si       0.60466    0.93518    0.63042    1.000
    Si3788   Si       0.60438    0.94346    0.72213    1.000
    N3789    N        0.57724    0.85098    0.61570    1.000
    N3790    N        0.59062    0.82483    0.85478    1.000
    Si3791   Si       0.63415    0.81120    0.85482    1.000
    N3792    N        0.63850    0.87579    0.77854    1.000
    Si3793   Si       0.61678    0.91056    0.79512    1.000
    Si3794   Si       0.61959    0.96919    0.84811    1.000
    N3795    N        0.59940    0.93802    0.76534    1.000
    N3796    N        0.60109    0.00377    0.77694    1.000
    N3797    N        0.58285    0.89128    0.81794    1.000
    Si3798   Si       0.58959    0.99783    0.99239    1.000
    Si3799   Si       0.60161    0.77896    0.98350    1.000
    Si3800   Si       0.62075    0.76227    0.91890    1.000
    N3801    N        0.63172    0.78816    0.95404    1.000
    N3802    N        0.61501    0.88768    0.97926    1.000
    N3803    N        0.60631    0.97088    0.96309    1.000
    Si3804   Si       0.58893    0.96007    0.92336    1.000
    N3805    N        0.61945    0.95818    0.89140    1.000
    N3806    N        0.58004    0.96848    0.83192    1.000
    N3807    N        0.66430    0.10808    0.04249    1.000
    Si3808   Si       0.66421    0.12406    0.08505    1.000
    N3809    N        0.66429    0.08149    0.10775    1.000
    Si3810   Si       0.66544    0.06410    0.04673    1.000
    N3811    N        0.67865    0.04999    0.00838    1.000
    N3812    N        0.66573    0.17028    0.07928    1.000
    N3813    N        0.66014    0.20712    0.01304    1.000
    Si3814   Si       0.68914    0.19797    0.10160    1.000
    Si3815   Si       0.66230    0.24806    0.00056    1.000
    Si3816   Si       0.65450    0.25600    0.06982    1.000
    Si3817   Si       0.64108    0.18704    0.04706    1.000
    N3818    N        0.69161    0.23987    0.08713    1.000
    Si3819   Si       0.66498    0.04972    0.14370    1.000
    N3820    N        0.68219    0.07683    0.17306    1.000
    Si3821   Si       0.68567    0.07380    0.21753    1.000
    N3822    N        0.65749    0.01753    0.17422    1.000
    N3823    N        0.68984    0.03299    0.22971    1.000
    N3824    N        0.69971    0.03106    0.12205    1.000
    N3825    N        0.68237    0.24030    0.20930    1.000
    N3826    N        0.67850    0.20060    0.14421    1.000
    Si3827   Si       0.67129    0.16320    0.16791    1.000
    N3828    N        0.65178    0.17613    0.20444    1.000
    Si3829   Si       0.67599    0.24005    0.16538    1.000
    Si3830   Si       0.66597    0.20722    0.23319    1.000
    N3831    N        0.66282    0.09643    0.24664    1.000
    N3832    N        0.65598    0.04346    0.29904    1.000
    N3833    N        0.66075    0.09922    0.33906    1.000
    Si3834   Si       0.67922    0.06211    0.32912    1.000
    N3835    N        0.67253    0.03569    0.36300    1.000
    Si3836   Si       0.67808    0.01677    0.27042    1.000
    Si3837   Si       0.67630    0.26329    0.39082    1.000
    N3838    N        0.64778    0.15075    0.27989    1.000
    Si3839   Si       0.69218    0.15437    0.27892    1.000
    N3840    N        0.69180    0.15433    0.37268    1.000
    Si3841   Si       0.67719    0.11495    0.37700    1.000
    Si3842   Si       0.67096    0.09045    0.44776    1.000
    N3843    N        0.65004    0.09932    0.41107    1.000
    N3844    N        0.66059    0.07652    0.48736    1.000
    N3845    N        0.68131    0.18576    0.43295    1.000
    N3846    N        0.64715    0.24318    0.41647    1.000
    Si3847   Si       0.67419    0.19018    0.39166    1.000
    Si3848   Si       0.66781    0.22362    0.44932    1.000
    N3849    N        0.68320    0.03798    0.54608    1.000
    Si3850   Si       0.64390    0.02000    0.55561    1.000
    Si3851   Si       0.69188    0.04870    0.50418    1.000
    N3852    N        0.64798    0.24218    0.59767    1.000
    Si3853   Si       0.67992    0.15058    0.60302    1.000
    N3854    N        0.67159    0.21033    0.54217    1.000
    Si3855   Si       0.67287    0.24672    0.56282    1.000
    Si3856   Si       0.65052    0.18939    0.50819    1.000
    N3857    N        0.68865    0.16711    0.50095    1.000
    N3858    N        0.64028    0.14720    0.58428    1.000
    Si3859   Si       0.66186    0.04109    0.62178    1.000
    Si3860   Si       0.68176    0.09730    0.66214    1.000
    Si3861   Si       0.67270    0.11781    0.72982    1.000
    N3862    N        0.65123    0.03120    0.70638    1.000
    N3863    N        0.64951    0.07175    0.64929    1.000
    N3864    N        0.66847    0.12710    0.68910    1.000
    Si3865   Si       0.69289    0.04671    0.71834    1.000
    N3866    N        0.66039    0.17845    0.63528    1.000
    N3867    N        0.65463    0.23708    0.66885    1.000
    Si3868   Si       0.66632    0.16850    0.67738    1.000
    Si3869   Si       0.66946    0.22206    0.62964    1.000
    N3870    N        0.64194    0.18519    0.70963    1.000
    N3871    N        0.67214    0.05667    0.81772    1.000
    Si3872   Si       0.67492    0.01278    0.80524    1.000
    N3873    N        0.68465    0.07890    0.74789    1.000
    N3874    N        0.65285    0.13995    0.98477    1.000
    N3875    N        0.66225    0.00537    0.76460    1.000
    N3876    N        0.66228    0.18596    0.77830    1.000
    N3877    N        0.67977    0.22404    0.83970    1.000
    Si3878   Si       0.64792    0.20026    0.86035    1.000
    Si3879   Si       0.68698    0.21915    0.79845    1.000
    N3880    N        0.68558    0.25522    0.77449    1.000
    N3881    N        0.65334    0.05282    0.87884    1.000
    Si3882   Si       0.65738    0.02602    0.97888    1.000
    N3883    N        0.66712    0.04012    0.93952    1.000
    Si3884   Si       0.64658    0.07223    0.91741    1.000
    Si3885   Si       0.67900    0.02133    0.90277    1.000
    N3886    N        0.66671    0.11233    0.92197    1.000
    N3887    N        0.66713    0.18363    0.94271    1.000
    N3888    N        0.64235    0.24899    0.96018    1.000
    N3889    N        0.66485    0.16553    0.87678    1.000
    Si3890   Si       0.64563    0.14329    0.94323    1.000
    Si3891   Si       0.68916    0.13512    0.89268    1.000
    Si3892   Si       0.67871    0.17680    0.98711    1.000
    Si3893   Si       0.69159    0.06394    0.85621    1.000
    Si3894   Si       0.63857    0.21463    0.93454    1.000
    N3895    N        0.65332    0.27526    0.03124    1.000
    N3896    N        0.68426    0.34033    0.02710    1.000
    Si3897   Si       0.64674    0.31749    0.01509    1.000
    Si3898   Si       0.66162    0.32039    0.10731    1.000
    Si3899   Si       0.68827    0.38247    0.01384    1.000
    N3900    N        0.69127    0.37736    0.10757    1.000
    N3901    N        0.64165    0.28387    0.10015    1.000
    Si3902   Si       0.65734    0.38531    0.08167    1.000
    N3903    N        0.65940    0.40086    0.04222    1.000
    N3904    N        0.64718    0.46439    0.07202    1.000
    Si3905   Si       0.66762    0.46677    0.11067    1.000
    Si3906   Si       0.64590    0.44096    0.03425    1.000
    N3907    N        0.67546    0.45673    0.00586    1.000
    N3908    N        0.69405    0.50489    0.10924    1.000
    N3909    N        0.66206    0.32723    0.15141    1.000
    Si3910   Si       0.63937    0.35908    0.16968    1.000
    Si3911   Si       0.65265    0.37112    0.24016    1.000
    N3912    N        0.69353    0.37657    0.22790    1.000
    Si3913   Si       0.64026    0.43582    0.17403    1.000
    N3914    N        0.67064    0.45075    0.19881    1.000
    Si3915   Si       0.66245    0.48496    0.22432    1.000
    N3916    N        0.66083    0.39809    0.16821    1.000
    N3917    N        0.63607    0.34604    0.08519    1.000
    Si3918   Si       0.63982    0.50662    0.06220    1.000
    N3919    N        0.65668    0.34534    0.27572    1.000
    Si3920   Si       0.67759    0.30684    0.27650    1.000
    N3921    N        0.67130    0.28518    0.35482    1.000
    N3922    N        0.64533    0.28056    0.28739    1.000
    Si3923   Si       0.63498    0.28024    0.33197    1.000
    N3924    N        0.67197    0.46969    0.26583    1.000
    N3925    N        0.68404    0.41930    0.30308    1.000
    Si3926   Si       0.64968    0.43613    0.28127    1.000
    N3927    N        0.65773    0.48167    0.36381    1.000
    Si3928   Si       0.68670    0.39840    0.34303    1.000
    N3929    N        0.65113    0.41196    0.36323    1.000
    N3930    N        0.65279    0.48886    0.43366    1.000
    N3931    N        0.65133    0.28744    0.47410    1.000
    N3932    N        0.67192    0.35081    0.45134    1.000
    Si3933   Si       0.66313    0.31089    0.43962    1.000
    Si3934   Si       0.68586    0.27107    0.49549    1.000
    Si3935   Si       0.65051    0.38686    0.46710    1.000
    N3936    N        0.68743    0.41102    0.45667    1.000
    Si3937   Si       0.69488    0.49175    0.43036    1.000
    N3938    N        0.64198    0.47041    0.49924    1.000
    N3939    N        0.67730    0.34593    0.52952    1.000
    N3940    N        0.66128    0.27486    0.53179    1.000
    N3941    N        0.65025    0.31555    0.58704    1.000
    Si3942   Si       0.64950    0.31657    0.54406    1.000
    Si3943   Si       0.68807    0.29949    0.60001    1.000
    Si3944   Si       0.66158    0.38409    0.54066    1.000
    N3945    N        0.64055    0.38467    0.57901    1.000
    N3946    N        0.65344    0.45590    0.58062    1.000
    Si3947   Si       0.66574    0.41691    0.59326    1.000
    Si3948   Si       0.68334    0.47932    0.50630    1.000
    Si3949   Si       0.68574    0.48399    0.57778    1.000
    N3950    N        0.63896    0.39738    0.50661    1.000
    N3951    N        0.68256    0.50390    0.54076    1.000
    Si3952   Si       0.65692    0.44656    0.72237    1.000
    N3953    N        0.66884    0.28549    0.71511    1.000
    Si3954   Si       0.68861    0.32429    0.71843    1.000
    N3955    N        0.65110    0.34936    0.72125    1.000
    N3956    N        0.65206    0.35078    0.64863    1.000
    Si3957   Si       0.68307    0.26759    0.67809    1.000
    N3958    N        0.68515    0.29188    0.64172    1.000
    Si3959   Si       0.69481    0.33548    0.64892    1.000
    N3960    N        0.66971    0.42011    0.63549    1.000
    N3961    N        0.69005    0.42385    0.70398    1.000
    N3962    N        0.65979    0.47935    0.75372    1.000
    N3963    N        0.67341    0.35868    0.78870    1.000
    Si3964   Si       0.67129    0.36414    0.83144    1.000
    N3965    N        0.68734    0.33068    0.85217    1.000
    Si3966   Si       0.64091    0.34339    0.76398    1.000
    Si3967   Si       0.65080    0.26838    0.75112    1.000
    N3968    N        0.68634    0.40356    0.83888    1.000
    Si3969   Si       0.66305    0.43833    0.85365    1.000
    N3970    N        0.68956    0.47162    0.86330    1.000
    N3971    N        0.64336    0.45238    0.81652    1.000
    N3972    N        0.63792    0.42236    0.88492    1.000
    N3973    N        0.65095    0.31847    0.97104    1.000
    Si3974   Si       0.66608    0.32005    0.88817    1.000
    N3975    N        0.65492    0.35611    0.91288    1.000
    Si3976   Si       0.67044    0.28441    0.95381    1.000
    Si3977   Si       0.65463    0.35852    0.95548    1.000
    N3978    N        0.68639    0.29518    0.91801    1.000
    N3979    N        0.69001    0.37873    0.97145    1.000
    Si3980   Si       0.67704    0.49351    0.89859    1.000
    N3981    N        0.68647    0.48662    0.94394    1.000
    Si3982   Si       0.65506    0.47171    0.97002    1.000
    Si3983   Si       0.67121    0.55548    0.01932    1.000
    N3984    N        0.68118    0.57459    0.09812    1.000
    N3985    N        0.67633    0.51945    0.04424    1.000
    Si3986   Si       0.64257    0.58981    0.08452    1.000
    N3987    N        0.63988    0.57520    0.04231    1.000
    N3988    N        0.64012    0.63367    0.08248    1.000
    Si3989   Si       0.68862    0.62027    0.99999    1.000
    N3990    N        0.65885    0.71473    0.18194    1.000
    Si3991   Si       0.64060    0.71339    0.08490    1.000
    N3992    N        0.66378    0.73346    0.05376    1.000
    Si3993   Si       0.65359    0.74170    0.01227    1.000
    N3994    N        0.67142    0.69183    0.10667    1.000
    Si3995   Si       0.66274    0.65025    0.11533    1.000
    Si3996   Si       0.67091    0.54036    0.12305    1.000
    Si3997   Si       0.66754    0.55452    0.20608    1.000
    N3998    N        0.68782    0.51888    0.21655    1.000
    N3999    N        0.68866    0.58574    0.22444    1.000
    Si4000   Si       0.67785    0.62686    0.23223    1.000
    N4001    N        0.66174    0.55619    0.16262    1.000
    Si4002   Si       0.68826    0.74366    0.17248    1.000
    Si4003   Si       0.64919    0.67274    0.18394    1.000
    N4004    N        0.68403    0.65042    0.19748    1.000
    N4005    N        0.66465    0.55429    0.35514    1.000
    Si4006   Si       0.68460    0.51589    0.35865    1.000
    N4007    N        0.66747    0.61901    0.36682    1.000
    Si4008   Si       0.69293    0.58705    0.35068    1.000
    Si4009   Si       0.65270    0.65398    0.34507    1.000
    N4010    N        0.65498    0.69379    0.27429    1.000
    N4011    N        0.68573    0.67922    0.33268    1.000
    N4012    N        0.66225    0.75469    0.31152    1.000
    N4013    N        0.69314    0.64212    0.27003    1.000
    Si4014   Si       0.69438    0.68103    0.28834    1.000
    N4015    N        0.65522    0.54044    0.48844    1.000
    N4016    N        0.67778    0.57766    0.43409    1.000
    Si4017   Si       0.65487    0.60991    0.40866    1.000
    Si4018   Si       0.66780    0.58066    0.47712    1.000
    N4019    N        0.68892    0.66655    0.48233    1.000
    Si4020   Si       0.64881    0.64920    0.47326    1.000
    N4021    N        0.64355    0.71362    0.42920    1.000
    Si4022   Si       0.68419    0.72389    0.41766    1.000
    N4023    N        0.68093    0.73930    0.37533    1.000
    N4024    N        0.64397    0.64544    0.43153    1.000
    Si4025   Si       0.66243    0.58353    0.59720    1.000
    Si4026   Si       0.64926    0.53217    0.53140    1.000
    N4027    N        0.64528    0.55383    0.57115    1.000
    N4028    N        0.68728    0.61229    0.57159    1.000
    N4029    N        0.65110    0.74267    0.58009    1.000
    Si4030   Si       0.66826    0.70597    0.55925    1.000
    N4031    N        0.67535    0.72588    0.52204    1.000
    N4032    N        0.65193    0.65397    0.61397    1.000
    Si4033   Si       0.69029    0.64724    0.59737    1.000
    Si4034   Si       0.64540    0.75685    0.52032    1.000
    Si4035   Si       0.68719    0.75654    0.59801    1.000
    N4036    N        0.64684    0.53362    0.65985    1.000
    N4037    N        0.67807    0.56835    0.71445    1.000
    Si4038   Si       0.68768    0.53157    0.64389    1.000
    Si4039   Si       0.68472    0.59969    0.74233    1.000
    N4040    N        0.69304    0.57174    0.62694    1.000
    N4041    N        0.68761    0.74972    0.64017    1.000
    N4042    N        0.65576    0.63385    0.68293    1.000
    N4043    N        0.67084    0.68714    0.73150    1.000
    Si4044   Si       0.67802    0.71826    0.67139    1.000
    N4045    N        0.68611    0.75237    0.70110    1.000
    N4046    N        0.63752    0.70371    0.67632    1.000
    Si4047   Si       0.68691    0.65881    0.70237    1.000
    Si4048   Si       0.63999    0.55616    0.69766    1.000
    Si4049   Si       0.68997    0.59594    0.81427    1.000
    N4050    N        0.64829    0.60125    0.81545    1.000
    N4051    N        0.64897    0.62035    0.75308    1.000
    N4052    N        0.65706    0.72653    0.84477    1.000
    Si4053   Si       0.68231    0.69181    0.77371    1.000
    N4054    N        0.68057    0.73608    0.77878    1.000
    N4055    N        0.65107    0.67325    0.79934    1.000
    Si4056   Si       0.66971    0.75626    0.81568    1.000
    Si4057   Si       0.69386    0.53229    0.94728    1.000
    Si4058   Si       0.67010    0.56208    0.87501    1.000
    N4059    N        0.66521    0.54905    0.97519    1.000
    N4060    N        0.68008    0.60213    0.89050    1.000
    N4061    N        0.68573    0.53581    0.90456    1.000
    N4062    N        0.64548    0.61944    0.99128    1.000
    N4063    N        0.65160    0.67234    0.87388    1.000
    N4064    N        0.64778    0.72698    0.91674    1.000
    Si4065   Si       0.67144    0.71207    0.88273    1.000
    N4066    N        0.66724    0.65844    0.93570    1.000
    N4067    N        0.66838    0.71088    0.98607    1.000
    Si4068   Si       0.65262    0.63733    0.89805    1.000
    Si4069   Si       0.64927    0.69827    0.94824    1.000
    N4070    N        0.67547    0.78831    0.09295    1.000
    N4071    N        0.66089    0.85617    0.10708    1.000
    N4072    N        0.67499    0.77936    0.01517    1.000
    Si4073   Si       0.68533    0.77056    0.05662    1.000
    Si4074   Si       0.64509    0.81480    0.10631    1.000
    N4075    N        0.69121    0.88081    0.04912    1.000
    Si4076   Si       0.65476    0.88120    0.07225    1.000
    N4077    N        0.64661    0.92206    0.08681    1.000
    N4078    N        0.66605    0.98723    0.06720    1.000
    Si4079   Si       0.66698    0.94442    0.05398    1.000
    N4080    N        0.64151    0.93781    0.01921    1.000
    N4081    N        0.67090    0.77985    0.18710    1.000
    N4082    N        0.68426    0.84055    0.22373    1.000
    Si4083   Si       0.68620    0.87977    0.13513    1.000
    N4084    N        0.68107    0.96687    0.20716    1.000
    Si4085   Si       0.64349    0.96606    0.22967    1.000
    N4086    N        0.66728    0.90890    0.16173    1.000
    Si4087   Si       0.69220    0.00684    0.19601    1.000
    N4088    N        0.65655    0.81955    0.29205    1.000
    Si4089   Si       0.66069    0.84957    0.26201    1.000
    Si4090   Si       0.66422    0.77260    0.35120    1.000
    Si4091   Si       0.68591    0.78544    0.29088    1.000
    N4092    N        0.69186    0.80475    0.36404    1.000
    N4093    N        0.67242    0.88394    0.29014    1.000
    N4094    N        0.65532    0.98075    0.26807    1.000
    N4095    N        0.68321    0.95660    0.32285    1.000
    N4096    N        0.65429    0.90520    0.35549    1.000
    Si4097   Si       0.64332    0.96200    0.30487    1.000
    Si4098   Si       0.68307    0.93762    0.36238    1.000
    Si4099   Si       0.64311    0.00097    0.36874    1.000
    N4100    N        0.66679    0.96923    0.38785    1.000
    Si4101   Si       0.65949    0.80209    0.45284    1.000
    N4102    N        0.64866    0.84760    0.39433    1.000
    Si4103   Si       0.66478    0.86582    0.49091    1.000
    N4104    N        0.64702    0.76641    0.47686    1.000
    N4105    N        0.64080    0.83162    0.47953    1.000
    Si4106   Si       0.68972    0.83533    0.39523    1.000
    N4107    N        0.64012    0.78489    0.41734    1.000
    Si4108   Si       0.63964    0.92664    0.45446    1.000
    N4109    N        0.65043    0.96076    0.47943    1.000
    Si4110   Si       0.63955    0.88982    0.39254    1.000
    N4111    N        0.66510    0.90730    0.42412    1.000
    N4112    N        0.69551    0.77435    0.24973    1.000
    Si4113   Si       0.69219    0.96840    0.48523    1.000
    N4114    N        0.67466    0.87298    0.53437    1.000
    N4115    N        0.68533    0.79823    0.59092    1.000
    Si4116   Si       0.64438    0.80463    0.57760    1.000
    Si4117   Si       0.65303    0.88927    0.57058    1.000
    Si4118   Si       0.68437    0.95813    0.56015    1.000
    N4119    N        0.64659    0.97579    0.55048    1.000
    N4120    N        0.68425    0.92045    0.57985    1.000
    N4121    N        0.66402    0.83402    0.72243    1.000
    Si4122   Si       0.68056    0.85380    0.64981    1.000
    N4123    N        0.63964    0.84156    0.65486    1.000
    Si4124   Si       0.64762    0.87643    0.73260    1.000
    N4125    N        0.68285    0.88789    0.67739    1.000
    N4126    N        0.66707    0.00446    0.64490    1.000
    N4127    N        0.69064    0.88799    0.74319    1.000
    Si4128   Si       0.64713    0.98990    0.68218    1.000
    N4129    N        0.69721    0.94188    0.64446    1.000
    Si4130   Si       0.66637    0.92963    0.68066    1.000
    N4131    N        0.64040    0.84855    0.58601    1.000
    N4132    N        0.67659    0.96731    0.70514    1.000
    N4133    N        0.63614    0.79617    0.53705    1.000
    N4134    N        0.65911    0.84871    0.84938    1.000
    Si4135   Si       0.66875    0.85995    0.80678    1.000
    N4136    N        0.69384    0.83156    0.78729    1.000
    N4137    N        0.63842    0.78575    0.82017    1.000
    Si4138   Si       0.67586    0.92397    0.83786    1.000
    N4139    N        0.69181    0.89604    0.81147    1.000
    N4140    N        0.64523    0.00150    0.83487    1.000
    N4141    N        0.63903    0.93749    0.82124    1.000
    N4142    N        0.65991    0.85758    0.92418    1.000
    Si4143   Si       0.65795    0.81383    0.92999    1.000
    Si4144   Si       0.67492    0.86856    0.88501    1.000
    Si4145   Si       0.68871    0.80919    0.98881    1.000
    N4146    N        0.64232    0.79591    0.89430    1.000
    N4147    N        0.66217    0.84565    0.99086    1.000
    Si4148   Si       0.66212    0.88306    0.96076    1.000
    Si4149   Si       0.64272    0.95290    0.97803    1.000
    N4150    N        0.67096    0.98416    0.98468    1.000
    N4151    N        0.65668    0.92649    0.94677    1.000
    Si4152   Si       0.65829    0.94439    0.90726    1.000
    N4153    N        0.66702    0.91228    0.87864    1.000
    N4154    N        0.68346    0.97945    0.90043    1.000
    N4155    N        0.69663    0.80378    0.94625    1.000
    Si4156   Si       0.69165    0.98195    0.74282    1.000
    N4157    N        0.73769    0.09449    0.02647    1.000
    Si4158   Si       0.72367    0.04813    0.02172    1.000
    Si4159   Si       0.70747    0.12325    0.03843    1.000
    N4160    N        0.70834    0.12118    0.08572    1.000
    Si4161   Si       0.70688    0.07758    0.10079    1.000
    N4162    N        0.70527    0.05063    0.06315    1.000
    Si4163   Si       0.69955    0.00997    0.08220    1.000
    Si4164   Si       0.74261    0.14261    0.10408    1.000
    N4165    N        0.73079    0.18443    0.10167    1.000
    N4166    N        0.70986    0.15869    0.01588    1.000
    N4167    N        0.72725    0.00282    0.02696    1.000
    N4168    N        0.73920    0.08608    0.12971    1.000
    Si4169   Si       0.71989    0.09937    0.16789    1.000
    N4170    N        0.72934    0.01878    0.18017    1.000
    N4171    N        0.73172    0.08816    0.20780    1.000
    Si4172   Si       0.74866    0.04724    0.20886    1.000
    Si4173   Si       0.75185    0.09955    0.24724    1.000
    Si4174   Si       0.75062    0.25199    0.16800    1.000
    N4175    N        0.70913    0.14136    0.16720    1.000
    Si4176   Si       0.74751    0.16704    0.16790    1.000
    Si4177   Si       0.74246    0.09544    0.34866    1.000
    N4178    N        0.72076    0.06964    0.31876    1.000
    Si4179   Si       0.74333    0.04319    0.29436    1.000
    N4180    N        0.75312    0.13189    0.33071    1.000
    N4181    N        0.69651    0.01219    0.47973    1.000
    N4182    N        0.72382    0.13067    0.26109    1.000
    Si4183   Si       0.72699    0.21516    0.29375    1.000
    Si4184   Si       0.72681    0.16244    0.34704    1.000
    N4185    N        0.70836    0.17998    0.31218    1.000
    N4186    N        0.71586    0.25066    0.27026    1.000
    N4187    N        0.74045    0.24384    0.32599    1.000
    Si4188   Si       0.73914    0.23234    0.36671    1.000
    N4189    N        0.70095    0.18711    0.24920    1.000
    N4190    N        0.70085    0.06086    0.43673    1.000
    N4191    N        0.71314    0.09047    0.38252    1.000
    Si4192   Si       0.72950    0.09346    0.42628    1.000
    Si4193   Si       0.72896    0.03130    0.45667    1.000
    N4194    N        0.70184    0.12137    0.44802    1.000
    Si4195   Si       0.70074    0.04798    0.39405    1.000
    N4196    N        0.75279    0.18943    0.36466    1.000
    N4197    N        0.69870    0.22669    0.38231    1.000
    N4198    N        0.70075    0.23581    0.47486    1.000
    Si4199   Si       0.70350    0.16058    0.46085    1.000
    N4200    N        0.74289    0.17863    0.46411    1.000
    Si4201   Si       0.74007    0.21742    0.48512    1.000
    Si4202   Si       0.74168    0.17006    0.24734    1.000
    Si4203   Si       0.71510    0.02643    0.57483    1.000
    N4204    N        0.70365    0.04984    0.61154    1.000
    Si4205   Si       0.72581    0.08574    0.61767    1.000
    N4206    N        0.74792    0.09619    0.58223    1.000
    N4207    N        0.75497    0.03119    0.55996    1.000
    N4208    N        0.73556    0.05471    0.49745    1.000
    Si4209   Si       0.74886    0.14053    0.58051    1.000
    Si4210   Si       0.70772    0.18423    0.53747    1.000
    N4211    N        0.70927    0.15946    0.57283    1.000
    N4212    N        0.74204    0.20953    0.52767    1.000
    Si4213   Si       0.74036    0.24922    0.60206    1.000
    N4214    N        0.69471    0.11752    0.62597    1.000
    N4215    N        0.71018    0.07399    0.68661    1.000
    Si4216   Si       0.74830    0.09093    0.68815    1.000
    N4217    N        0.72031    0.01573    0.73359    1.000
    N4218    N        0.72251    0.25311    0.68737    1.000
    N4219    N        0.70865    0.18171    0.68454    1.000
    Si4220   Si       0.73156    0.21510    0.66799    1.000
    Si4221   Si       0.73629    0.16068    0.71341    1.000
    N4222    N        0.71224    0.22609    0.62887    1.000
    N4223    N        0.70584    0.14435    0.73976    1.000
    N4224    N        0.73288    0.07423    0.81233    1.000
    Si4225   Si       0.72888    0.11415    0.83091    1.000
    N4226    N        0.70468    0.10509    0.86525    1.000
    N4227    N        0.69731    0.12551    0.80159    1.000
    Si4228   Si       0.69510    0.08287    0.78969    1.000
    Si4229   Si       0.73593    0.24455    0.97377    1.000
    N4230    N        0.72540    0.19553    0.79013    1.000
    Si4231   Si       0.71145    0.23660    0.86335    1.000
    Si4232   Si       0.69969    0.16216    0.77781    1.000
    N4233    N        0.74981    0.21906    0.84832    1.000
    N4234    N        0.72344    0.15621    0.91137    1.000
    N4235    N        0.71461    0.03684    0.88077    1.000
    N4236    N        0.74702    0.05372    0.98145    1.000
    Si4237   Si       0.74220    0.16642    0.98702    1.000
    N4238    N        0.70869    0.22991    0.90960    1.000
    Si4239   Si       0.70653    0.19178    0.92907    1.000
    N4240    N        0.72362    0.19955    0.96802    1.000
    Si4241   Si       0.75266    0.03567    0.81168    1.000
    N4242    N        0.73446    0.28389    0.05444    1.000
    Si4243   Si       0.72252    0.32126    0.03426    1.000
    Si4244   Si       0.72241    0.27189    0.09614    1.000
    N4245    N        0.73845    0.35158    0.06131    1.000
    Si4246   Si       0.72642    0.35205    0.10323    1.000
    N4247    N        0.70841    0.31226    0.10784    1.000
    N4248    N        0.74924    0.32597    0.00075    1.000
    N4249    N        0.72404    0.40750    0.02291    1.000
    Si4250   Si       0.71740    0.45095    0.01839    1.000
    N4251    N        0.73370    0.47498    0.05312    1.000
    N4252    N        0.73428    0.48139    0.17631    1.000
    Si4253   Si       0.75144    0.37037    0.17043    1.000
    Si4254   Si       0.71695    0.33838    0.21835    1.000
    N4255    N        0.72271    0.33800    0.17452    1.000
    N4256    N        0.71033    0.26616    0.15600    1.000
    Si4257   Si       0.71268    0.26391    0.22957    1.000
    Si4258   Si       0.70068    0.30836    0.15315    1.000
    N4259    N        0.75429    0.37562    0.12775    1.000
    N4260    N        0.70088    0.30391    0.23885    1.000
    N4261    N        0.72392    0.40977    0.17510    1.000
    Si4262   Si       0.69844    0.41572    0.20746    1.000
    Si4263   Si       0.72459    0.48116    0.13359    1.000
    N4264    N        0.72457    0.43070    0.24395    1.000
    Si4265   Si       0.69592    0.40444    0.14108    1.000
    N4266    N        0.70057    0.44398    0.12447    1.000
    N4267    N        0.75117    0.26405    0.21083    1.000
    Si4268   Si       0.73965    0.27651    0.29704    1.000
    N4269    N        0.71068    0.30627    0.30739    1.000
    Si4270   Si       0.70393    0.31445    0.34761    1.000
    N4271    N        0.69527    0.35652    0.35513    1.000
    Si4272   Si       0.70866    0.44791    0.28066    1.000
    N4273    N        0.74576    0.46546    0.29198    1.000
    N4274    N        0.72286    0.41182    0.36605    1.000
    Si4275   Si       0.74898    0.49122    0.32449    1.000
    Si4276   Si       0.73251    0.38824    0.25200    1.000
    N4277    N        0.75314    0.47837    0.36430    1.000
    N4278    N        0.73995    0.31075    0.37316    1.000
    Si4279   Si       0.73318    0.36849    0.37414    1.000
    N4280    N        0.73584    0.36572    0.41705    1.000
    Si4281   Si       0.74057    0.28716    0.40941    1.000
    N4282    N        0.73023    0.36706    0.48524    1.000
    Si4283   Si       0.70874    0.37530    0.44781    1.000
    N4284    N        0.69739    0.28854    0.41992    1.000
    Si4285   Si       0.74098    0.44345    0.38657    1.000
    N4286    N        0.70700    0.48993    0.47133    1.000
    Si4287   Si       0.71528    0.44310    0.46499    1.000
    N4288    N        0.71560    0.45493    0.42085    1.000
    Si4289   Si       0.72525    0.36487    0.57991    1.000
    N4290    N        0.73971    0.33926    0.54764    1.000
    Si4291   Si       0.71511    0.33669    0.51121    1.000
    N4292    N        0.70966    0.33751    0.60841    1.000
    N4293    N        0.70898    0.26769    0.57771    1.000
    N4294    N        0.72101    0.29477    0.49944    1.000
    N4295    N        0.72129    0.45733    0.57981    1.000
    Si4296   Si       0.72500    0.42785    0.54617    1.000
    N4297    N        0.70385    0.44267    0.51087    1.000
    Si4298   Si       0.73415    0.47416    0.61682    1.000
    N4299    N        0.70034    0.50370    0.61360    1.000
    N4300    N        0.69882    0.39698    0.56492    1.000
    N4301    N        0.71954    0.32323    0.68464    1.000
    Si4302   Si       0.73889    0.36053    0.69831    1.000
    Si4303   Si       0.74484    0.28864    0.67151    1.000
    N4304    N        0.72124    0.37461    0.73345    1.000
    N4305    N        0.72692    0.38069    0.66140    1.000
    Si4306   Si       0.72329    0.41990    0.73453    1.000
    N4307    N        0.72613    0.47670    0.73216    1.000
    N4308    N        0.72536    0.45443    0.65511    1.000
    Si4309   Si       0.73157    0.48207    0.68917    1.000
    Si4310   Si       0.70454    0.41821    0.66113    1.000
    Si4311   Si       0.72685    0.31444    0.84749    1.000
    Si4312   Si       0.71486    0.35647    0.77259    1.000
    N4313    N        0.73986    0.29963    0.80845    1.000
    Si4314   Si       0.72154    0.27975    0.77511    1.000
    N4315    N        0.73958    0.37574    0.80356    1.000
    N4316    N        0.71263    0.31637    0.75428    1.000
    N4317    N        0.73247    0.27651    0.86962    1.000
    Si4318   Si       0.72369    0.48031    0.83699    1.000
    Si4319   Si       0.71579    0.41279    0.81057    1.000
    N4320    N        0.74133    0.44323    0.82650    1.000
    N4321    N        0.72018    0.49942    0.79661    1.000
    N4322    N        0.70631    0.43003    0.77221    1.000
    Si4323   Si       0.70114    0.47415    0.76727    1.000
    N4324    N        0.75048    0.27484    0.94708    1.000
    Si4325   Si       0.72417    0.27335    0.91251    1.000
    N4326    N        0.74543    0.34897    0.93615    1.000
    N4327    N        0.69827    0.26365    0.98131    1.000
    Si4328   Si       0.72381    0.38462    0.94442    1.000
    N4329    N        0.73447    0.42366    0.93212    1.000
    N4330    N        0.73890    0.46788    0.98525    1.000
    Si4331   Si       0.72467    0.46415    0.94436    1.000
    N4332    N        0.75173    0.51033    0.85607    1.000
    Si4333   Si       0.71577    0.59943    0.10619    1.000
    N4334    N        0.73450    0.61361    0.07028    1.000
    N4335    N        0.74093    0.54425    0.06318    1.000
    Si4336   Si       0.74143    0.58261    0.04032    1.000
    N4337    N        0.70177    0.58454    0.02109    1.000
    Si4338   Si       0.71668    0.64487    0.16909    1.000
    N4339    N        0.73848    0.71675    0.01489    1.000
    Si4340   Si       0.73532    0.65392    0.05145    1.000
    N4341    N        0.73867    0.68020    0.08411    1.000
    N4342    N        0.70436    0.65615    0.01795    1.000
    Si4343   Si       0.71318    0.69784    0.11634    1.000
    N4344    N        0.74248    0.57355    0.12859    1.000
    Si4345   Si       0.73001    0.57312    0.23248    1.000
    N4346    N        0.74444    0.55139    0.19557    1.000
    N4347    N        0.74732    0.61809    0.18581    1.000
    N4348    N        0.69985    0.63319    0.12885    1.000
    Si4349   Si       0.73198    0.51195    0.20853    1.000
    Si4350   Si       0.72286    0.74067    0.24030    1.000
    N4351    N        0.70988    0.73963    0.13325    1.000
    N4352    N        0.73203    0.68386    0.15435    1.000
    N4353    N        0.72158    0.73346    0.19710    1.000
    Si4354   Si       0.74896    0.72463    0.16148    1.000
    Si4355   Si       0.71287    0.51174    0.06917    1.000
    N4356    N        0.71589    0.58930    0.31468    1.000
    Si4357   Si       0.72754    0.62090    0.28847    1.000
    Si4358   Si       0.72762    0.54837    0.30436    1.000
    N4359    N        0.73767    0.54359    0.26212    1.000
    N4360    N        0.71053    0.51517    0.32437    1.000
    N4361    N        0.74517    0.60860    0.25068    1.000
    Si4362   Si       0.70560    0.70452    0.35898    1.000
    N4363    N        0.72212    0.70802    0.27028    1.000
    N4364    N        0.74549    0.70888    0.34230    1.000
    N4365    N        0.74598    0.64532    0.37086    1.000
    N4366    N        0.74904    0.65671    0.29992    1.000
    N4367    N        0.74719    0.55693    0.44132    1.000
    N4368    N        0.72323    0.58435    0.38286    1.000
    Si4369   Si       0.71196    0.55892    0.41450    1.000
    N4370    N        0.69955    0.52034    0.39898    1.000
    N4371    N        0.72851    0.63186    0.44047    1.000
    N4372    N        0.70719    0.69079    0.40181    1.000
    Si4373   Si       0.72058    0.63586    0.48327    1.000
    Si4374   Si       0.69928    0.70817    0.49112    1.000
    Si4375   Si       0.73814    0.66151    0.41066    1.000
    N4376    N        0.70296    0.73412    0.45506    1.000
    Si4377   Si       0.73952    0.75104    0.47303    1.000
    Si4378   Si       0.71721    0.61008    0.53930    1.000
    N4379    N        0.69965    0.60021    0.49942    1.000
    N4380    N        0.73661    0.64903    0.52252    1.000
    Si4381   Si       0.73847    0.70409    0.58335    1.000
    N4382    N        0.72862    0.74631    0.58610    1.000
    N4383    N        0.70099    0.68428    0.57887    1.000
    N4384    N        0.74289    0.71410    0.49788    1.000
    Si4385   Si       0.72865    0.59401    0.63681    1.000
    N4386    N        0.74318    0.58171    0.67944    1.000
    N4387    N        0.71393    0.52094    0.67719    1.000
    Si4388   Si       0.71930    0.55344    0.70628    1.000
    N4389    N        0.74146    0.54746    0.74379    1.000
    N4390    N        0.71122    0.62788    0.71976    1.000
    Si4391   Si       0.74985    0.61923    0.70200    1.000
    N4392    N        0.70539    0.68511    0.67441    1.000
    N4393    N        0.71572    0.63449    0.63173    1.000
    Si4394   Si       0.70251    0.75031    0.74128    1.000
    N4395    N        0.74214    0.72950    0.73403    1.000
    Si4396   Si       0.73645    0.66845    0.64984    1.000
    Si4397   Si       0.73923    0.54939    0.84268    1.000
    N4398    N        0.70913    0.59322    0.77637    1.000
    Si4399   Si       0.75108    0.58590    0.76958    1.000
    Si4400   Si       0.75260    0.52267    0.77983    1.000
    N4401    N        0.70895    0.63065    0.83577    1.000
    N4402    N        0.70014    0.56416    0.84192    1.000
    Si4403   Si       0.73976    0.71348    0.92659    1.000
    N4404    N        0.72198    0.67587    0.78033    1.000
    Si4405   Si       0.73848    0.64905    0.81136    1.000
    Si4406   Si       0.75340    0.69846    0.76273    1.000
    Si4407   Si       0.70673    0.69312    0.99445    1.000
    Si4408   Si       0.72063    0.60963    0.87302    1.000
    N4409    N        0.71488    0.61363    0.96446    1.000
    N4410    N        0.73512    0.54754    0.95469    1.000
    Si4411   Si       0.75175    0.58797    0.96592    1.000
    N4412    N        0.71181    0.72768    0.89393    1.000
    N4413    N        0.73493    0.64022    0.90114    1.000
    Si4414   Si       0.70987    0.64674    0.93649    1.000
    N4415    N        0.72502    0.68368    0.95614    1.000
    Si4416   Si       0.71428    0.77383    0.10849    1.000
    N4417    N        0.72312    0.82650    0.00843    1.000
    Si4418   Si       0.71335    0.86849    0.01418    1.000
    N4419    N        0.72723    0.76364    0.06747    1.000
    N4420    N        0.75069    0.87869    0.03836    1.000
    Si4421   Si       0.74645    0.96828    0.05455    1.000
    Si4422   Si       0.72633    0.90406    0.06401    1.000
    N4423    N        0.73275    0.98376    0.09420    1.000
    N4424    N        0.71008    0.94425    0.04183    1.000
    N4425    N        0.71157    0.90572    0.10781    1.000
    Si4426   Si       0.73006    0.94283    0.11436    1.000
    Si4427   Si       0.70777    0.97136    0.00419    1.000
    Si4428   Si       0.69763    0.93528    0.18265    1.000
    N4429    N        0.73852    0.80422    0.12711    1.000
    Si4430   Si       0.74318    0.83071    0.16539    1.000
    Si4431   Si       0.71312    0.86775    0.20466    1.000
    N4432    N        0.73764    0.80092    0.19820    1.000
    N4433    N        0.70758    0.85617    0.16411    1.000
    Si4434   Si       0.69811    0.79930    0.21410    1.000
    N4435    N        0.72114    0.96031    0.15324    1.000
    Si4436   Si       0.74227    0.91483    0.24558    1.000
    N4437    N        0.71273    0.91012    0.21415    1.000
    Si4438   Si       0.73466    0.00427    0.13967    1.000
    N4439    N        0.72515    0.78475    0.30979    1.000
    Si4440   Si       0.73330    0.80340    0.34962    1.000
    Si4441   Si       0.74142    0.87843    0.36087    1.000
    N4442    N        0.74645    0.84293    0.33752    1.000
    N4443    N        0.74310    0.88052    0.27489    1.000
    N4444    N        0.71956    0.93811    0.38915    1.000
    Si4445   Si       0.72161    0.97077    0.30467    1.000
    N4446    N        0.72511    0.90842    0.33424    1.000
    N4447    N        0.72330    0.93999    0.27421    1.000
    Si4448   Si       0.71118    0.90266    0.29487    1.000
    Si4449   Si       0.74984    0.93536    0.35764    1.000
    N4450    N        0.69493    0.81796    0.43588    1.000
    N4451    N        0.71465    0.87032    0.39293    1.000
    N4452    N        0.73560    0.78907    0.49224    1.000
    Si4453   Si       0.72829    0.82363    0.46218    1.000
    N4454    N        0.70840    0.85453    0.48509    1.000
    N4455    N        0.71361    0.95302    0.45049    1.000
    Si4456   Si       0.71063    0.90680    0.42101    1.000
    N4457    N        0.74985    0.90318    0.44417    1.000
    Si4458   Si       0.70473    0.97141    0.41088    1.000
    N4459    N        0.75522    0.96976    0.33363    1.000
    N4460    N        0.71751    0.00900    0.28587    1.000
    N4461    N        0.72410    0.01089    0.40299    1.000
    Si4462   Si       0.71526    0.86503    0.52666    1.000
    Si4463   Si       0.71634    0.82809    0.59257    1.000
    N4464    N        0.72783    0.83208    0.54983    1.000
    N4465    N        0.70252    0.86620    0.61326    1.000
    N4466    N        0.70939    0.95641    0.52522    1.000
    Si4467   Si       0.74875    0.93853    0.53061    1.000
    N4468    N        0.74497    0.89481    0.53426    1.000
    Si4469   Si       0.70814    0.90739    0.61552    1.000
    N4470    N        0.70435    0.98570    0.58801    1.000
    N4471    N        0.75122    0.91658    0.62432    1.000
    N4472    N        0.73181    0.84501    0.71418    1.000
    N4473    N        0.70574    0.81923    0.66172    1.000
    Si4474   Si       0.74531    0.82328    0.67891    1.000
    Si4475   Si       0.70423    0.77647    0.67036    1.000
    N4476    N        0.74686    0.77847    0.68346    1.000
    Si4477   Si       0.70196    0.83032    0.74250    1.000
    N4478    N        0.73444    0.92180    0.69969    1.000
    Si4479   Si       0.71392    0.88506    0.70655    1.000
    N4480    N        0.74241    0.98486    0.65021    1.000
    Si4481   Si       0.74317    0.93893    0.65979    1.000
    Si4482   Si       0.70188    0.98410    0.63246    1.000
    Si4483   Si       0.75666    0.80681    0.52700    1.000
    Si4484   Si       0.72489    0.80477    0.80189    1.000
    N4485    N        0.70691    0.77377    0.83167    1.000
    N4486    N        0.74512    0.83527    0.82938    1.000
    N4487    N        0.72116    0.78714    0.75641    1.000
    Si4488   Si       0.70972    0.90783    0.77478    1.000
    Si4489   Si       0.72991    0.96463    0.80862    1.000
    N4490    N        0.71041    0.95089    0.84445    1.000
    N4491    N        0.70678    0.95336    0.77305    1.000
    N4492    N        0.75201    0.90173    0.77750    1.000
    Si4493   Si       0.74591    0.83335    0.87202    1.000
    Si4494   Si       0.72128    0.96044    0.88660    1.000
    Si4495   Si       0.73406    0.79125    0.93244    1.000
    N4496    N        0.71794    0.86370    0.88903    1.000
    N4497    N        0.73440    0.79473    0.88839    1.000
    N4498    N        0.70380    0.89103    0.97673    1.000
    N4499    N        0.74112    0.95228    0.98137    1.000
    Si4500   Si       0.73138    0.91818    0.95615    1.000
    N4501    N        0.72390    0.92827    0.91460    1.000
    Si4502   Si       0.74885    0.89187    0.89906    1.000
    N4503    N        0.71790    0.00856    0.80980    1.000
    Si4504   Si       0.72898    0.75804    0.86743    1.000
    Si4505   Si       0.77216    0.09925    0.05162    1.000
    N4506    N        0.78829    0.06958    0.07752    1.000
    N4507    N        0.80158    0.10727    0.01812    1.000
    Si4508   Si       0.77558    0.06559    0.11838    1.000
    N4509    N        0.77312    0.13640    0.07231    1.000
    Si4510   Si       0.79783    0.21840    0.01110    1.000
    N4511    N        0.80262    0.19860    0.10238    1.000
    N4512    N        0.77704    0.18133    0.01051    1.000
    N4513    N        0.80541    0.23827    0.04780    1.000
    N4514    N        0.76473    0.24706    0.00525    1.000
    Si4515   Si       0.76392    0.21010    0.11615    1.000
    N4516    N        0.76161    0.25537    0.11100    1.000
    Si4517   Si       0.80822    0.15016    0.01543    1.000
    Si4518   Si       0.80866    0.15844    0.08453    1.000
    N4519    N        0.77308    0.02323    0.13011    1.000
    N4520    N        0.80705    0.08207    0.14433    1.000
    N4521    N        0.79223    0.03976    0.20155    1.000
    Si4522   Si       0.80980    0.12577    0.14454    1.000
    Si4523   Si       0.80092    0.15161    0.21965    1.000
    N4524    N        0.77166    0.14728    0.13725    1.000
    N4525    N        0.76056    0.16274    0.20928    1.000
    N4526    N        0.75415    0.20969    0.15978    1.000
    Si4527   Si       0.79898    0.03357    0.24384    1.000
    N4528    N        0.79057    0.12054    0.24844    1.000
    N4529    N        0.77706    0.03506    0.31836    1.000
    Si4530   Si       0.80491    0.06585    0.33441    1.000
    N4531    N        0.78010    0.08033    0.36704    1.000
    N4532    N        0.75991    0.05607    0.25400    1.000
    N4533    N        0.81690    0.17248    0.30413    1.000
    N4534    N        0.81195    0.10120    0.30813    1.000
    Si4535   Si       0.79750    0.13724    0.32505    1.000
    N4536    N        0.76192    0.19881    0.27231    1.000
    Si4537   Si       0.80435    0.20302    0.27521    1.000
    N4538    N        0.80815    0.14510    0.36580    1.000
    N4539    N        0.79283    0.18920    0.42085    1.000
    Si4540   Si       0.78922    0.09267    0.40791    1.000
    Si4541   Si       0.76658    0.02085    0.41326    1.000
    N4542    N        0.76224    0.12476    0.42122    1.000
    N4543    N        0.76310    0.06175    0.42826    1.000
    N4544    N        0.76261    0.25011    0.39989    1.000
    N4545    N        0.77076    0.24473    0.47046    1.000
    N4546    N        0.80508    0.14509    0.47378    1.000
    Si4547   Si       0.79309    0.18292    0.37876    1.000
    Si4548   Si       0.78984    0.23377    0.43037    1.000
    Si4549   Si       0.77565    0.15770    0.44556    1.000
    Si4550   Si       0.77827    0.06682    0.57320    1.000
    N4551    N        0.79171    0.07484    0.53283    1.000
    Si4552   Si       0.76989    0.03999    0.51866    1.000
    N4553    N        0.80171    0.01175    0.50997    1.000
    N4554    N        0.81298    0.05773    0.59963    1.000
    Si4555   Si       0.78064    0.20338    0.54901    1.000
    N4556    N        0.77458    0.15687    0.54904    1.000
    N4557    N        0.77061    0.21879    0.58959    1.000
    Si4558   Si       0.80493    0.15366    0.51688    1.000
    N4559    N        0.76481    0.15579    0.61720    1.000
    N4560    N        0.78206    0.07989    0.71213    1.000
    Si4561   Si       0.77685    0.13097    0.65021    1.000
    Si4562   Si       0.80140    0.12091    0.71852    1.000
    N4563    N        0.78564    0.01281    0.70084    1.000
    N4564    N        0.75687    0.09175    0.64700    1.000
    N4565    N        0.77466    0.20697    0.66113    1.000
    N4566    N        0.76396    0.13447    0.69303    1.000
    Si4567   Si       0.79213    0.20430    0.70386    1.000
    N4568    N        0.81011    0.23728    0.72466    1.000
    N4569    N        0.75963    0.19338    0.73061    1.000
    Si4570   Si       0.78705    0.19345    0.62127    1.000
    N4571    N        0.77925    0.03414    0.84722    1.000
    N4572    N        0.77695    0.02725    0.77571    1.000
    Si4573   Si       0.76287    0.14416    0.92529    1.000
    N4574    N        0.79950    0.13353    0.75809    1.000
    Si4575   Si       0.79259    0.13994    0.85897    1.000
    N4576    N        0.79048    0.20325    0.79632    1.000
    Si4577   Si       0.75586    0.18740    0.82070    1.000
    N4578    N        0.75777    0.14662    0.83424    1.000
    Si4579   Si       0.76288    0.21446    0.76596    1.000
    N4580    N        0.79750    0.24295    0.89301    1.000
    N4581    N        0.77872    0.04558    0.91498    1.000
    Si4582   Si       0.77912    0.03992    0.95621    1.000
    N4583    N        0.78512    0.11929    0.89761    1.000
    Si4584   Si       0.76291    0.09337    0.98729    1.000
    N4585    N        0.80133    0.07802    0.96303    1.000
    Si4586   Si       0.80854    0.08490    0.91656    1.000
    Si4587   Si       0.75879    0.02475    0.88395    1.000
    N4588    N        0.75637    0.13233    0.96618    1.000
    N4589    N        0.78548    0.18072    0.92465    1.000
    Si4590   Si       0.81021    0.20008    0.89310    1.000
    N4591    N        0.75365    0.25678    0.75934    1.000
    Si4592   Si       0.77042    0.25468    0.85803    1.000
    N4593    N        0.79989    0.30593    0.03877    1.000
    Si4594   Si       0.77328    0.26925    0.04085    1.000
    N4595    N        0.79766    0.32070    0.10936    1.000
    Si4596   Si       0.79026    0.33768    0.01300    1.000
    N4597    N        0.79397    0.37857    0.02569    1.000
    N4598    N        0.78958    0.44606    0.02014    1.000
    Si4599   Si       0.77367    0.45914    0.05971    1.000
    N4600    N        0.76907    0.41593    0.07509    1.000
    N4601    N        0.80907    0.47009    0.08483    1.000
    Si4602   Si       0.78278    0.40511    0.11452    1.000
    N4603    N        0.75947    0.50315    0.11418    1.000
    Si4604   Si       0.75739    0.38846    0.04503    1.000
    N4605    N        0.75271    0.36031    0.22735    1.000
    Si4606   Si       0.79470    0.28100    0.12581    1.000
    N4607    N        0.79412    0.35847    0.17379    1.000
    Si4608   Si       0.79526    0.27716    0.21270    1.000
    N4609    N        0.78890    0.27550    0.16678    1.000
    Si4610   Si       0.79690    0.35638    0.21758    1.000
    N4611    N        0.80516    0.31611    0.23124    1.000
    Si4612   Si       0.79502    0.47932    0.12331    1.000
    Si4613   Si       0.75624    0.44175    0.17629    1.000
    N4614    N        0.77566    0.44274    0.13831    1.000
    N4615    N        0.76284    0.49369    0.23515    1.000
    N4616    N        0.78191    0.43600    0.21024    1.000
    N4617    N        0.77020    0.36238    0.35065    1.000
    N4618    N        0.77567    0.28901    0.28110    1.000
    Si4619   Si       0.80807    0.31645    0.27621    1.000
    Si4620   Si       0.78094    0.32317    0.36709    1.000
    N4621    N        0.80575    0.29777    0.34292    1.000
    Si4622   Si       0.78808    0.38342    0.31629    1.000
    N4623    N        0.80952    0.41960    0.33033    1.000
    N4624    N        0.80632    0.44980    0.26373    1.000
    Si4625   Si       0.76490    0.45313    0.24852    1.000
    N4626    N        0.75535    0.38840    0.28756    1.000
    Si4627   Si       0.76040    0.28717    0.48151    1.000
    N4628    N        0.80171    0.33279    0.40310    1.000
    Si4629   Si       0.77099    0.34550    0.43252    1.000
    N4630    N        0.78987    0.37489    0.46006    1.000
    N4631    N        0.75839    0.30530    0.44301    1.000
    Si4632   Si       0.76410    0.39693    0.48924    1.000
    Si4633   Si       0.78475    0.49578    0.38951    1.000
    Si4634   Si       0.78851    0.45061    0.44209    1.000
    N4635    N        0.75717    0.43310    0.46579    1.000
    N4636    N        0.80968    0.48298    0.48752    1.000
    N4637    N        0.77775    0.49200    0.43160    1.000
    N4638    N        0.78189    0.43358    0.40036    1.000
    Si4639   Si       0.78096    0.32958    0.54269    1.000
    N4640    N        0.79087    0.30682    0.50680    1.000
    N4641    N        0.79021    0.30253    0.57531    1.000
    N4642    N        0.80546    0.36513    0.54536    1.000
    N4643    N        0.75833    0.38888    0.59663    1.000
    Si4644   Si       0.78877    0.39959    0.56419    1.000
    N4645    N        0.78735    0.49286    0.55310    1.000
    Si4646   Si       0.80446    0.47464    0.58763    1.000
    N4647    N        0.76278    0.41121    0.53042    1.000
    N4648    N        0.77747    0.47717    0.61981    1.000
    Si4649   Si       0.79398    0.30082    0.61897    1.000
    Si4650   Si       0.79853    0.33131    0.68394    1.000
    N4651    N        0.78309    0.33785    0.64353    1.000
    N4652    N        0.78159    0.29252    0.69612    1.000
    N4653    N        0.78186    0.36303    0.70633    1.000
    Si4654   Si       0.78650    0.27211    0.73399    1.000
    Si4655   Si       0.76761    0.37811    0.63652    1.000
    N4656    N        0.75962    0.27601    0.63263    1.000
    N4657    N        0.77461    0.48941    0.69157    1.000
    Si4658   Si       0.79963    0.49173    0.65527    1.000
    Si4659   Si       0.77716    0.46953    0.72999    1.000
    N4660    N        0.76449    0.42845    0.72182    1.000
    Si4661   Si       0.79564    0.40512    0.70227    1.000
    N4662    N        0.79051    0.40880    0.65629    1.000
    Si4663   Si       0.76992    0.36667    0.83106    1.000
    N4664    N        0.79585    0.34145    0.80846    1.000
    N4665    N        0.79675    0.27550    0.83097    1.000
    Si4666   Si       0.78543    0.29997    0.79841    1.000
    N4667    N        0.80856    0.29610    0.76208    1.000
    N4668    N        0.75310    0.34622    0.86498    1.000
    N4669    N        0.75618    0.48675    0.92513    1.000
    Si4670   Si       0.78287    0.43888    0.83682    1.000
    N4671    N        0.79764    0.39873    0.84073    1.000
    N4672    N        0.78237    0.49554    0.76602    1.000
    Si4673   Si       0.77367    0.34954    0.90277    1.000
    N4674    N        0.79350    0.31191    0.90641    1.000
    N4675    N        0.80226    0.32981    0.97169    1.000
    Si4676   Si       0.76204    0.31556    0.95903    1.000
    Si4677   Si       0.77990    0.49473    0.88562    1.000
    N4678    N        0.79863    0.44167    0.95081    1.000
    N4679    N        0.77822    0.45119    0.87939    1.000
    N4680    N        0.79249    0.38804    0.90492    1.000
    Si4681   Si       0.77496    0.42706    0.91441    1.000
    Si4682   Si       0.78264    0.46675    0.98316    1.000
    N4683    N        0.79045    0.51074    0.97956    1.000
    N4684    N        0.77005    0.59315    0.00926    1.000
    N4685    N        0.80022    0.55831    0.09760    1.000
    Si4686   Si       0.76087    0.54429    0.10109    1.000
    Si4687   Si       0.79687    0.62663    0.01058    1.000
    N4688    N        0.77160    0.65986    0.02664    1.000
    Si4689   Si       0.77847    0.69702    0.08845    1.000
    N4690    N        0.78690    0.71792    0.05091    1.000
    Si4691   Si       0.77838    0.69889    0.01216    1.000
    N4692    N        0.77194    0.72369    0.12152    1.000
    N4693    N        0.80530    0.57514    0.16661    1.000
    Si4694   Si       0.76038    0.57970    0.16724    1.000
    N4695    N        0.80909    0.61355    0.21762    1.000
    Si4696   Si       0.76969    0.62876    0.22136    1.000
    Si4697   Si       0.80421    0.74680    0.13952    1.000
    N4698    N        0.78170    0.74896    0.17770    1.000
    N4699    N        0.77774    0.66948    0.23586    1.000
    Si4700   Si       0.75520    0.74830    0.03938    1.000
    N4701    N        0.79027    0.59526    0.34552    1.000
    N4702    N        0.77108    0.52950    0.31311    1.000
    Si4703   Si       0.79597    0.55131    0.34112    1.000
    Si4704   Si       0.77613    0.52406    0.26779    1.000
    N4705    N        0.81278    0.54299    0.25553    1.000
    Si4706   Si       0.76907    0.74246    0.35413    1.000
    N4707    N        0.80037    0.70425    0.28263    1.000
    Si4708   Si       0.76074    0.68875    0.27309    1.000
    Si4709   Si       0.76263    0.66755    0.33943    1.000
    N4710    N        0.80641    0.66017    0.34292    1.000
    Si4711   Si       0.81037    0.64553    0.42144    1.000
    Si4712   Si       0.75708    0.59938    0.44176    1.000
    Si4713   Si       0.75966    0.60557    0.37295    1.000
    N4714    N        0.78642    0.53927    0.38262    1.000
    Si4715   Si       0.77632    0.52557    0.46046    1.000
    N4716    N        0.77261    0.61019    0.48056    1.000
    N4717    N        0.78595    0.60824    0.41065    1.000
    Si4718   Si       0.80559    0.56695    0.41046    1.000
    Si4719   Si       0.79016    0.71425    0.42608    1.000
    N4720    N        0.76573    0.74881    0.43955    1.000
    N4721    N        0.77715    0.67353    0.42598    1.000
    N4722    N        0.79577    0.72260    0.38352    1.000
    Si4723   Si       0.81168    0.62948    0.48942    1.000
    N4724    N        0.78834    0.75754    0.31776    1.000
    Si4725   Si       0.78520    0.59523    0.58183    1.000
    Si4726   Si       0.77500    0.58165    0.51275    1.000
    N4727    N        0.77025    0.53869    0.50248    1.000
    N4728    N        0.79873    0.63500    0.58635    1.000
    N4729    N        0.76760    0.58601    0.62019    1.000
    Si4730   Si       0.80252    0.51239    0.51915    1.000
    N4731    N        0.75422    0.58923    0.54987    1.000
    N4732    N        0.77569    0.69485    0.56224    1.000
    Si4733   Si       0.76537    0.68226    0.52019    1.000
    N4734    N        0.80453    0.66824    0.50644    1.000
    N4735    N        0.79701    0.75408    0.61181    1.000
    Si4736   Si       0.81070    0.67699    0.58447    1.000
    N4737    N        0.80217    0.53528    0.64861    1.000
    Si4738   Si       0.78583    0.57411    0.66025    1.000
    N4739    N        0.77496    0.60752    0.73451    1.000
    Si4740   Si       0.79056    0.71816    0.63552    1.000
    Si4741   Si       0.76961    0.74744    0.70199    1.000
    N4742    N        0.76272    0.64998    0.67725    1.000
    N4743    N        0.78052    0.67244    0.73985    1.000
    Si4744   Si       0.79122    0.67764    0.69763    1.000
    N4745    N        0.79011    0.71795    0.67982    1.000
    N4746    N        0.75473    0.69705    0.62430    1.000
    N4747    N        0.76589    0.61967    0.79586    1.000
    Si4748   Si       0.78487    0.59045    0.82505    1.000
    N4749    N        0.76208    0.55745    0.80476    1.000
    N4750    N        0.75832    0.58493    0.86231    1.000
    Si4751   Si       0.79283    0.63985    0.76730    1.000
    N4752    N        0.77423    0.72375    0.79518    1.000
    Si4753   Si       0.79181    0.69284    0.82157    1.000
    N4754    N        0.77139    0.74737    0.85893    1.000
    N4755    N        0.76088    0.67053    0.84270    1.000
    Si4756   Si       0.78797    0.75744    0.82025    1.000
    Si4757   Si       0.79089    0.58206    0.89401    1.000
    Si4758   Si       0.77041    0.52377    0.94422    1.000
    N4759    N        0.78695    0.59152    0.93959    1.000
    N4760    N        0.78824    0.53618    0.90790    1.000
    N4761    N        0.80120    0.62951    0.88549    1.000
    Si4762   Si       0.79640    0.72386    0.88527    1.000
    N4763    N        0.75310    0.75096    0.94435    1.000
    Si4764   Si       0.79534    0.74709    0.95643    1.000
    Si4765   Si       0.77133    0.65892    0.88447    1.000
    N4766    N        0.79968    0.70851    0.97581    1.000
    N4767    N        0.77352    0.69558    0.90626    1.000
    N4768    N        0.81407    0.66418    0.79715    1.000
    Si4769   Si       0.78574    0.85342    0.04622    1.000
    N4770    N        0.79851    0.82864    0.01132    1.000
    Si4771   Si       0.77915    0.81637    0.11356    1.000
    N4772    N        0.79907    0.82969    0.07817    1.000
    N4773    N        0.77443    0.77348    0.00894    1.000
    N4774    N        0.80928    0.78557    0.11983    1.000
    N4775    N        0.80533    0.90308    0.17385    1.000
    N4776    N        0.78490    0.97318    0.03391    1.000
    Si4777   Si       0.80046    0.92984    0.09780    1.000
    N4778    N        0.76046    0.93113    0.08033    1.000
    N4779    N        0.77878    0.84668    0.14472    1.000
    Si4780   Si       0.77378    0.77752    0.20901    1.000
    N4781    N        0.75669    0.86263    0.20548    1.000
    N4782    N        0.81050    0.79762    0.21731    1.000
    Si4783   Si       0.80896    0.99965    0.12036    1.000
    Si4784   Si       0.79091    0.88708    0.21234    1.000
    N4785    N        0.79965    0.95920    0.13116    1.000
    N4786    N        0.78403    0.92388    0.23500    1.000
    N4787    N        0.77569    0.81800    0.27612    1.000
    Si4788   Si       0.76638    0.85420    0.29992    1.000
    Si4789   Si       0.76220    0.77873    0.28830    1.000
    N4790    N        0.80243    0.86979    0.31711    1.000
    N4791    N        0.80995    0.86288    0.39982    1.000
    Si4792   Si       0.78699    0.99816    0.33893    1.000
    N4793    N        0.80387    0.99361    0.25923    1.000
    Si4794   Si       0.79867    0.98419    0.47580    1.000
    N4795    N        0.75831    0.78032    0.37563    1.000
    Si4796   Si       0.80483    0.83403    0.43085    1.000
    Si4797   Si       0.77557    0.78395    0.41396    1.000
    N4798    N        0.76435    0.82062    0.43628    1.000
    N4799    N        0.79586    0.95007    0.42603    1.000
    N4800    N        0.77601    0.90463    0.37023    1.000
    Si4801   Si       0.81282    0.91165    0.40830    1.000
    N4802    N        0.77523    0.94832    0.49318    1.000
    N4803    N        0.76047    0.00282    0.45499    1.000
    N4804    N        0.79201    0.00713    0.38246    1.000
    Si4805   Si       0.75868    0.94566    0.45108    1.000
    Si4806   Si       0.80935    0.82394    0.25074    1.000
    N4807    N        0.76249    0.75832    0.24875    1.000
    N4808    N        0.78305    0.83918    0.51488    1.000
    N4809    N        0.78906    0.87080    0.58636    1.000
    N4810    N        0.77988    0.77797    0.54977    1.000
    Si4811   Si       0.76464    0.77051    0.59036    1.000
    Si4812   Si       0.78321    0.87405    0.54118    1.000
    N4813    N        0.78654    0.94576    0.67443    1.000
    N4814    N        0.75571    0.81103    0.60515    1.000
    Si4815   Si       0.78649    0.83871    0.61758    1.000
    Si4816   Si       0.78405    0.91383    0.59527    1.000
    N4817    N        0.78162    0.94287    0.56035    1.000
    Si4818   Si       0.80651    0.93728    0.52278    1.000
    N4819    N        0.77357    0.85152    0.65897    1.000
    Si4820   Si       0.79907    0.86924    0.68838    1.000
    N4821    N        0.79467    0.76435    0.73451    1.000
    Si4822   Si       0.78431    0.98854    0.66513    1.000
    Si4823   Si       0.76355    0.00646    0.73963    1.000
    N4824    N        0.77706    0.96396    0.74525    1.000
    Si4825   Si       0.77352    0.93289    0.71494    1.000
    N4826    N        0.79460    0.89629    0.72253    1.000
    N4827    N        0.79721    0.84985    0.77708    1.000
    Si4828   Si       0.78304    0.82633    0.81037    1.000
    N4829    N        0.76782    0.78709    0.79833    1.000
    Si4830   Si       0.76032    0.76336    0.76218    1.000
    N4831    N        0.81161    0.81588    0.84121    1.000
    Si4832   Si       0.79128    0.89114    0.76758    1.000
    Si4833   Si       0.80215    0.96017    0.78134    1.000
    Si4834   Si       0.78192    0.95557    0.85422    1.000
    N4835    N        0.77350    0.96455    0.81282    1.000
    N4836    N        0.77317    0.91432    0.87097    1.000
    N4837    N        0.77949    0.85152    0.89371    1.000
    Si4838   Si       0.78850    0.84901    0.93724    1.000
    N4839    N        0.76501    0.81577    0.95054    1.000
    N4840    N        0.81219    0.93804    0.98006    1.000
    N4841    N        0.75811    0.97995    0.88153    1.000
    Si4842   Si       0.78084    0.96600    0.99143    1.000
    N4843    N        0.79710    0.00642    0.97592    1.000
    Si4844   Si       0.80624    0.90726    0.95010    1.000
    N4845    N        0.76575    0.89250    0.94267    1.000
    Si4846   Si       0.76118    0.81215    0.99347    1.000
    N4847    N        0.83080    0.04523    0.02282    1.000
    Si4848   Si       0.82623    0.05017    0.06674    1.000
    N4849    N        0.86210    0.07052    0.08386    1.000
    N4850    N        0.83502    0.13325    0.10916    1.000
    Si4851   Si       0.82807    0.08150    0.99645    1.000
    Si4852   Si       0.87065    0.11072    0.09550    1.000
    Si4853   Si       0.82723    0.22797    0.08370    1.000
    N4854    N        0.82949    0.16802    0.04694    1.000
    N4855    N        0.86681    0.21253    0.07845    1.000
    N4856    N        0.81815    0.18607    0.23703    1.000
    N4857    N        0.83400    0.01474    0.15311    1.000
    Si4858   Si       0.82010    0.05182    0.17196    1.000
    Si4859   Si       0.85906    0.11115    0.19649    1.000
    N4860    N        0.85781    0.06984    0.18836    1.000
    N4861    N        0.85951    0.11677    0.24105    1.000
    N4862    N        0.82286    0.13316    0.18527    1.000
    N4863    N        0.83091    0.25187    0.22677    1.000
    Si4864   Si       0.84970    0.21138    0.22143    1.000
    N4865    N        0.81832    0.00834    0.07807    1.000
    N4866    N        0.86688    0.10292    0.99475    1.000
    N4867    N        0.84408    0.05131    0.34429    1.000
    N4868    N        0.82981    0.05848    0.26058    1.000
    Si4869   Si       0.82461    0.10193    0.26527    1.000
    N4870    N        0.86142    0.16625    0.40444    1.000
    Si4871   Si       0.85005    0.20856    0.40190    1.000
    N4872    N        0.87227    0.12272    0.35313    1.000
    N4873    N        0.82444    0.20852    0.36558    1.000
    N4874    N        0.82458    0.23664    0.29895    1.000
    Si4875   Si       0.84027    0.20213    0.32547    1.000
    Si4876   Si       0.85549    0.25813    0.26324    1.000
    N4877    N        0.83268    0.23777    0.43085    1.000
    Si4878   Si       0.84435    0.13199    0.38330    1.000
    N4879    N        0.83268    0.07908    0.47629    1.000
    Si4880   Si       0.84706    0.03873    0.46463    1.000
    N4881    N        0.82776    0.10815    0.41560    1.000
    Si4882   Si       0.83430    0.11781    0.45699    1.000
    N4883    N        0.87081    0.02151    0.49681    1.000
    N4884    N        0.82376    0.00734    0.44629    1.000
    Si4885   Si       0.85246    0.06265    0.58464    1.000
    Si4886   Si       0.82846    0.08752    0.51862    1.000
    N4887    N        0.85813    0.06447    0.54073    1.000
    N4888    N        0.86632    0.02900    0.61177    1.000
    N4889    N        0.83412    0.12753    0.53204    1.000
    N4890    N        0.86635    0.10217    0.59309    1.000
    Si4891   Si       0.86491    0.13206    0.56045    1.000
    Si4892   Si       0.85300    0.22287    0.53081    1.000
    N4893    N        0.84411    0.23777    0.57069    1.000
    Si4894   Si       0.86034    0.20409    0.59997    1.000
    N4895    N        0.81510    0.19735    0.52142    1.000
    N4896    N        0.84754    0.25737    0.50313    1.000
    N4897    N        0.84536    0.10854    0.71331    1.000
    Si4898   Si       0.84570    0.09607    0.67268    1.000
    Si4899   Si       0.82846    0.03351    0.63391    1.000
    N4900    N        0.83030    0.05665    0.66952    1.000
    N4901    N        0.82100    0.12710    0.65183    1.000
    N4902    N        0.83404    0.04828    0.74398    1.000
    Si4903   Si       0.81204    0.04724    0.70761    1.000
    N4904    N        0.82372    0.17285    0.70404    1.000
    N4905    N        0.82874    0.18804    0.62665    1.000
    Si4906   Si       0.85386    0.24906    0.72277    1.000
    Si4907   Si       0.86701    0.17384    0.71687    1.000
    Si4908   Si       0.83760    0.16716    0.66227    1.000
    N4909    N        0.83929    0.04711    0.81808    1.000
    Si4910   Si       0.85127    0.08961    0.82335    1.000
    N4911    N        0.85605    0.10100    0.78137    1.000
    Si4912   Si       0.82178    0.03100    0.78074    1.000
    Si4913   Si       0.82325    0.03726    0.85723    1.000
    N4914    N        0.81455    0.11561    0.82860    1.000
    Si4915   Si       0.82619    0.13293    0.79096    1.000
    N4916    N        0.85246    0.23388    0.81967    1.000
    N4917    N        0.84986    0.16793    0.79574    1.000
    Si4918   Si       0.82770    0.19818    0.81871    1.000
    N4919    N        0.82922    0.07156    0.88116    1.000
    N4920    N        0.84868    0.11074    0.92503    1.000
    N4921    N        0.86354    0.01838    0.95597    1.000
    Si4922   Si       0.83776    0.01476    0.99069    1.000
    Si4923   Si       0.86603    0.09515    0.88790    1.000
    Si4924   Si       0.85876    0.13039    0.96153    1.000
    N4925    N        0.84960    0.01027    0.87935    1.000
    N4926    N        0.81271    0.17991    0.85669    1.000
    N4927    N        0.82598    0.15497    0.97634    1.000
    Si4928   Si       0.85940    0.25128    0.97393    1.000
    Si4929   Si       0.81808    0.18920    0.95198    1.000
    N4930    N        0.84485    0.19312    0.91693    1.000
    N4931    N        0.82750    0.22069    0.98016    1.000
    Si4932   Si       0.86313    0.08181    0.74404    1.000
    N4933    N        0.86121    0.32242    0.06719    1.000
    Si4934   Si       0.82050    0.30701    0.07547    1.000
    N4935    N        0.82797    0.26923    0.09953    1.000
    N4936    N        0.82158    0.38843    0.11860    1.000
    Si4937   Si       0.84833    0.45823    0.07060    1.000
    N4938    N        0.85150    0.43600    0.03483    1.000
    N4939    N        0.86679    0.43645    0.10545    1.000
    Si4940   Si       0.81890    0.41347    0.01791    1.000
    Si4941   Si       0.86342    0.39764    0.12178    1.000
    N4942    N        0.85091    0.50346    0.01341    1.000
    N4943    N        0.85703    0.33195    0.13985    1.000
    Si4944   Si       0.86657    0.37281    0.23283    1.000
    Si4945   Si       0.81537    0.34870    0.13635    1.000
    Si4946   Si       0.85500    0.48843    0.17838    1.000
    N4947    N        0.85207    0.45049    0.19965    1.000
    N4948    N        0.82616    0.38631    0.22939    1.000
    N4949    N        0.81799    0.50030    0.15420    1.000
    Si4950   Si       0.82240    0.43159    0.22489    1.000
    Si4951   Si       0.87142    0.46331    0.00783    1.000
    N4952    N        0.84609    0.29647    0.28623    1.000
    Si4953   Si       0.83268    0.27311    0.32284    1.000
    Si4954   Si       0.85313    0.37520    0.30205    1.000
    N4955    N        0.81477    0.35519    0.29600    1.000
    N4956    N        0.87009    0.26778    0.34415    1.000
    N4957    N        0.85343    0.48263    0.31207    1.000
    N4958    N        0.85953    0.41674    0.28756    1.000
    Si4959   Si       0.82902    0.44545    0.29984    1.000
    Si4960   Si       0.84923    0.50091    0.35200    1.000
    N4961    N        0.82063    0.47634    0.37222    1.000
    Si4962   Si       0.81560    0.43250    0.37123    1.000
    N4963    N        0.86780    0.32510    0.38352    1.000
    N4964    N        0.83925    0.30218    0.45672    1.000
    N4965    N        0.85476    0.36619    0.42898    1.000
    Si4966   Si       0.84094    0.32677    0.42023    1.000
    Si4967   Si       0.85309    0.26079    0.45994    1.000
    Si4968   Si       0.83020    0.38903    0.45766    1.000
    N4969    N        0.82768    0.43188    0.45237    1.000
    Si4970   Si       0.84646    0.46570    0.47541    1.000
    N4971    N        0.85243    0.41204    0.38129    1.000
    N4972    N        0.86174    0.49846    0.45406    1.000
    Si4973   Si       0.86927    0.36994    0.38032    1.000
    Si4974   Si       0.84617    0.36377    0.53213    1.000
    N4975    N        0.85931    0.32273    0.52966    1.000
    Si4976   Si       0.86183    0.26821    0.59574    1.000
    Si4977   Si       0.83324    0.29822    0.50193    1.000
    Si4978   Si       0.85604    0.42013    0.58534    1.000
    N4979    N        0.83497    0.50111    0.60211    1.000
    N4980    N        0.87036    0.38788    0.55856    1.000
    N4981    N        0.81542    0.43051    0.57894    1.000
    N4982    N        0.85611    0.38110    0.49248    1.000
    N4983    N        0.83651    0.29101    0.62377    1.000
    N4984    N        0.86281    0.26608    0.68500    1.000
    N4985    N        0.84189    0.33394    0.67857    1.000
    Si4986   Si       0.85973    0.30002    0.65872    1.000
    Si4987   Si       0.86406    0.36364    0.70021    1.000
    N4988    N        0.86631    0.34076    0.74156    1.000
    N4989    N        0.82402    0.45855    0.73667    1.000
    Si4990   Si       0.83428    0.42228    0.65915    1.000
    N4991    N        0.86226    0.41618    0.62783    1.000
    Si4992   Si       0.85303    0.47275    0.70620    1.000
    N4993    N        0.83895    0.40127    0.69749    1.000
    N4994    N        0.83176    0.46534    0.66716    1.000
    N4995    N        0.85687    0.31136    0.80822    1.000
    Si4996   Si       0.83671    0.34883    0.81759    1.000
    Si4997   Si       0.84929    0.30817    0.76373    1.000
    N4998    N        0.84163    0.35610    0.86120    1.000
    Si4999   Si       0.84071    0.27443    0.83371    1.000
    N5000    N        0.86838    0.26825    0.75804    1.000
    N5001    N        0.86632    0.37837    0.80030    1.000
    N5002    N        0.85961    0.42592    0.85602    1.000
    Si5003   Si       0.84387    0.46875    0.85164    1.000
    Si5004   Si       0.82075    0.47892    0.77613    1.000
    N5005    N        0.85648    0.50362    0.77224    1.000
    N5006    N        0.81426    0.46367    0.81718    1.000
    N5007    N        0.84971    0.28411    0.87493    1.000
    N5008    N        0.84002    0.27764    0.94599    1.000
    Si5009   Si       0.84132    0.32098    0.95700    1.000
    Si5010   Si       0.86334    0.32570    0.88235    1.000
    N5011    N        0.86428    0.34010    0.92344    1.000
    Si5012   Si       0.82082    0.27749    0.90703    1.000
    N5013    N        0.86416    0.33288    0.99322    1.000
    Si5014   Si       0.82619    0.39424    0.87653    1.000
    N5015    N        0.84305    0.39751    0.98367    1.000
    N5016    N        0.82531    0.49552    0.87889    1.000
    Si5017   Si       0.84028    0.42685    0.95115    1.000
    N5018    N        0.86418    0.45847    0.96541    1.000
    N5019    N        0.85494    0.40523    0.91559    1.000
    N5020    N        0.82784    0.62353    0.03963    1.000
    N5021    N        0.85290    0.61385    0.10259    1.000
    N5022    N        0.85133    0.55940    0.05656    1.000
    Si5023   Si       0.85403    0.59058    0.02557    1.000
    Si5024   Si       0.84064    0.57394    0.09679    1.000
    Si5025   Si       0.84440    0.64483    0.07321    1.000
    N5026    N        0.81469    0.67289    0.09430    1.000
    N5027    N        0.85986    0.55485    0.13206    1.000
    Si5028   Si       0.83277    0.54255    0.16254    1.000
    N5029    N        0.85394    0.52715    0.19862    1.000
    Si5030   Si       0.82469    0.61192    0.17742    1.000
    Si5031   Si       0.84993    0.54706    0.23737    1.000
    N5032    N        0.86914    0.58774    0.23797    1.000
    N5033    N        0.86772    0.60959    0.17387    1.000
    Si5034   Si       0.87125    0.73433    0.24722    1.000
    N5035    N        0.81605    0.65045    0.15991    1.000
    N5036    N        0.83826    0.71949    0.13958    1.000
    Si5037   Si       0.83758    0.67696    0.13437    1.000
    Si5038   Si       0.81591    0.68817    0.24442    1.000
    N5039    N        0.83990    0.71779    0.22333    1.000
    Si5040   Si       0.87158    0.74711    0.13921    1.000
    Si5041   Si       0.87194    0.52374    0.04698    1.000
    N5042    N        0.83784    0.54085    0.34120    1.000
    N5043    N        0.86139    0.61359    0.33881    1.000
    Si5044   Si       0.86052    0.57360    0.35908    1.000
    Si5045   Si       0.81994    0.62158    0.32840    1.000
    N5046    N        0.81650    0.61307    0.28656    1.000
    Si5047   Si       0.83682    0.61461    0.24988    1.000
    N5048    N        0.84430    0.71808    0.33667    1.000
    Si5049   Si       0.82329    0.69263    0.36415    1.000
    Si5050   Si       0.82123    0.73467    0.30365    1.000
    N5051    N        0.85237    0.75307    0.28056    1.000
    N5052    N        0.84880    0.65696    0.25168    1.000
    N5053    N        0.84583    0.58168    0.40128    1.000
    Si5054   Si       0.84891    0.53683    0.47090    1.000
    N5055    N        0.83615    0.62570    0.45225    1.000
    Si5056   Si       0.86687    0.59937    0.43467    1.000
    N5057    N        0.81274    0.54869    0.44914    1.000
    N5058    N        0.84192    0.67391    0.39902    1.000
    Si5059   Si       0.86006    0.70710    0.41931    1.000
    Si5060   Si       0.83714    0.75273    0.47509    1.000
    N5061    N        0.86795    0.74327    0.39393    1.000
    N5062    N        0.82736    0.72159    0.44602    1.000
    Si5063   Si       0.84043    0.56817    0.54245    1.000
    N5064    N        0.83905    0.53515    0.51474    1.000
    Si5065   Si       0.82617    0.54274    0.61271    1.000
    N5066    N        0.81779    0.59834    0.51891    1.000
    N5067    N        0.81326    0.56440    0.57728    1.000
    Si5068   Si       0.84102    0.68779    0.51859    1.000
    N5069    N        0.84741    0.68245    0.56362    1.000
    N5070    N        0.83368    0.73102    0.51532    1.000
    N5071    N        0.85827    0.56790    0.62847    1.000
    Si5072   Si       0.86562    0.53391    0.74256    1.000
    N5073    N        0.86807    0.51358    0.70361    1.000
    Si5074   Si       0.81534    0.59202    0.72326    1.000
    N5075    N        0.81862    0.59361    0.67835    1.000
    Si5076   Si       0.86010    0.60047    0.66185    1.000
    N5077    N        0.87015    0.75304    0.62436    1.000
    Si5078   Si       0.85875    0.64026    0.71797    1.000
    N5079    N        0.83219    0.66330    0.69137    1.000
    Si5080   Si       0.85300    0.67714    0.65583    1.000
    N5081    N        0.82342    0.69080    0.62582    1.000
    N5082    N        0.87351    0.63980    0.64141    1.000
    N5083    N        0.83991    0.56578    0.74646    1.000
    N5084    N        0.82412    0.58728    0.81071    1.000
    Si5085   Si       0.85562    0.56825    0.83875    1.000
    Si5086   Si       0.85578    0.59423    0.77921    1.000
    N5087    N        0.83345    0.62480    0.75103    1.000
    N5088    N        0.86606    0.70113    0.97377    1.000
    N5089    N        0.82643    0.56647    0.87200    1.000
    Si5090   Si       0.85375    0.66210    0.78152    1.000
    Si5091   Si       0.85862    0.69265    0.84940    1.000
    Si5092   Si       0.86269    0.73836    0.79319    1.000
    N5093    N        0.86709    0.65209    0.86186    1.000
    N5094    N        0.86805    0.69669    0.80638    1.000
    N5095    N        0.81861    0.70157    0.85401    1.000
    N5096    N        0.85951    0.73453    0.74958    1.000
    N5097    N        0.81356    0.75057    0.91519    1.000
    N5098    N        0.85480    0.60596    0.92014    1.000
    Si5099   Si       0.82902    0.52850    0.98278    1.000
    N5100    N        0.84542    0.51833    0.94290    1.000
    Si5101   Si       0.83358    0.53132    0.89998    1.000
    N5102    N        0.83918    0.57285    0.98838    1.000
    Si5103   Si       0.82845    0.60042    0.95446    1.000
    Si5104   Si       0.82751    0.67956    0.96235    1.000
    Si5105   Si       0.86941    0.74394    0.97558    1.000
    Si5106   Si       0.84230    0.64108    0.89668    1.000
    N5107    N        0.84445    0.67849    0.92061    1.000
    N5108    N        0.81915    0.63898    0.97536    1.000
    Si5109   Si       0.83855    0.80376    0.08975    1.000
    N5110    N        0.84557    0.78715    0.04864    1.000
    Si5111   Si       0.83752    0.86428    0.00177    1.000
    Si5112   Si       0.81843    0.78839    0.01399    1.000
    N5113    N        0.81933    0.87782    0.03990    1.000
    N5114    N        0.87208    0.77108    0.10260    1.000
    Si5115   Si       0.82484    0.97706    0.04868    1.000
    Si5116   Si       0.84270    0.89752    0.07051    1.000
    N5117    N        0.83056    0.94017    0.06846    1.000
    N5118    N        0.85372    0.97943    0.01316    1.000
    N5119    N        0.81934    0.89160    0.10814    1.000
    N5120    N        0.86827    0.90103    0.00321    1.000
    N5121    N        0.87394    0.82149    0.22175    1.000
    N5122    N        0.86823    0.78114    0.16577    1.000
    N5123    N        0.81963    0.86171    0.23096    1.000
    Si5124   Si       0.84566    0.80967    0.19203    1.000
    N5125    N        0.84480    0.84562    0.16407    1.000
    Si5126   Si       0.86406    0.86264    0.23618    1.000
    Si5127   Si       0.81420    0.87085    0.14571    1.000
    N5128    N        0.86551    0.95072    0.15381    1.000
    Si5129   Si       0.82303    0.94038    0.16432    1.000
    Si5130   Si       0.81386    0.95424    0.23870    1.000
    Si5131   Si       0.85673    0.98715    0.17838    1.000
    N5132    N        0.82856    0.96501    0.20035    1.000
    N5133    N        0.83947    0.82246    0.28268    1.000
    Si5134   Si       0.84224    0.86063    0.30466    1.000
    N5135    N        0.85902    0.85992    0.34573    1.000
    Si5136   Si       0.86778    0.79180    0.29440    1.000
    N5137    N        0.86519    0.88213    0.27492    1.000
    Si5138   Si       0.81362    0.87984    0.35959    1.000
    N5139    N        0.83965    0.91545    0.37314    1.000
    N5140    N        0.82630    0.98706    0.32677    1.000
    N5141    N        0.84527    0.94700    0.26952    1.000
    Si5142   Si       0.83736    0.98608    0.28804    1.000
    N5143    N        0.81992    0.79406    0.41658    1.000
    N5144    N        0.83547    0.84392    0.46102    1.000
    Si5145   Si       0.86135    0.78272    0.41764    1.000
    Si5146   Si       0.86570    0.87346    0.45412    1.000
    N5147    N        0.85514    0.98667    0.38963    1.000
    N5148    N        0.86765    0.78822    0.33862    1.000
    Si5149   Si       0.81856    0.98439    0.40979    1.000
    N5150    N        0.84422    0.90925    0.43855    1.000
    Si5151   Si       0.85911    0.93738    0.46770    1.000
    Si5152   Si       0.85538    0.00997    0.35187    1.000
    N5153    N        0.82106    0.78705    0.49577    1.000
    N5154    N        0.83530    0.95918    0.49797    1.000
    N5155    N        0.84507    0.78405    0.56610    1.000
    N5156    N        0.85596    0.84097    0.52473    1.000
    Si5157   Si       0.83522    0.77692    0.60929    1.000
    Si5158   Si       0.81908    0.76699    0.53521    1.000
    Si5159   Si       0.82268    0.82935    0.49985    1.000
    N5160    N        0.81650    0.83368    0.70527    1.000
    Si5161   Si       0.85943    0.88369    0.52783    1.000
    Si5162   Si       0.86397    0.91369    0.60608    1.000
    Si5163   Si       0.84491    0.99546    0.51894    1.000
    N5164    N        0.82302    0.92193    0.61394    1.000
    N5165    N        0.87002    0.98127    0.54943    1.000
    N5166    N        0.81559    0.89614    0.52601    1.000
    Si5167   Si       0.87502    0.81072    0.55084    1.000
    Si5168   Si       0.83763    0.76707    0.73173    1.000
    Si5169   Si       0.83821    0.81194    0.67338    1.000
    N5170    N        0.84600    0.77025    0.68923    1.000
    N5171    N        0.82263    0.81432    0.63263    1.000
    N5172    N        0.83168    0.88793    0.66922    1.000
    N5173    N        0.86015    0.94951    0.67758    1.000
    Si5174   Si       0.82385    0.92860    0.65848    1.000
    N5175    N        0.82056    0.99329    0.64182    1.000
    Si5176   Si       0.86502    0.98098    0.64387    1.000
    Si5177   Si       0.82685    0.84044    0.74567    1.000
    Si5178   Si       0.84900    0.79521    0.83379    1.000
    N5179    N        0.86150    0.86724    0.76153    1.000
    N5180    N        0.83963    0.87419    0.86519    1.000
    N5181    N        0.85122    0.80312    0.75510    1.000
    N5182    N        0.86003    0.78102    0.87330    1.000
    N5183    N        0.83145    0.76060    0.81358    1.000
    Si5184   Si       0.87312    0.92292    0.91947    1.000
    Si5185   Si       0.85593    0.94099    0.98881    1.000
    Si5186   Si       0.86223    0.90771    0.77986    1.000
    N5187    N        0.83439    0.98862    0.77634    1.000
    Si5188   Si       0.86008    0.97160    0.86147    1.000
    N5189    N        0.82371    0.94980    0.85734    1.000
    N5190    N        0.82116    0.91918    0.78392    1.000
    Si5191   Si       0.81841    0.83908    0.87772    1.000
    N5192    N        0.86636    0.83295    0.98657    1.000
    N5193    N        0.83302    0.76611    0.97900    1.000
    Si5194   Si       0.84642    0.77917    0.91456    1.000
    N5195    N        0.83134    0.82304    0.91737    1.000
    Si5196   Si       0.85906    0.84517    0.94479    1.000
    N5197    N        0.82132    0.86809    0.96111    1.000
    Si5198   Si       0.81732    0.90946    0.87593    1.000
    N5199    N        0.82982    0.92054    0.91598    1.000
    Si5200   Si       0.90068    0.04811    0.07440    1.000
    Si5201   Si       0.90091    0.11006    0.02555    1.000
    N5202    N        0.91592    0.07367    0.04290    1.000
    N5203    N        0.91215    0.11638    0.11832    1.000
    N5204    N        0.92728    0.03092    0.10921    1.000
    N5205    N        0.88958    0.13439    0.06132    1.000
    Si5206   Si       0.92610    0.14014    0.08561    1.000
    Si5207   Si       0.90707    0.22500    0.08627    1.000
    N5208    N        0.89875    0.18588    0.02070    1.000
    N5209    N        0.92529    0.18458    0.08957    1.000
    Si5210   Si       0.92375    0.10810    0.16021    1.000
    N5211    N        0.92286    0.06512    0.16901    1.000
    Si5212   Si       0.89520    0.04714    0.19427    1.000
    N5213    N        0.90125    0.05384    0.23540    1.000
    Si5214   Si       0.90886    0.22918    0.17250    1.000
    Si5215   Si       0.90959    0.17157    0.19227    1.000
    N5216    N        0.89512    0.13241    0.18435    1.000
    N5217    N        0.87964    0.20444    0.19304    1.000
    N5218    N        0.90765    0.24033    0.12776    1.000
    Si5219   Si       0.87363    0.17583    0.05313    1.000
    Si5220   Si       0.89447    0.11817    0.26790    1.000
    N5221    N        0.90865    0.07037    0.36073    1.000
    N5222    N        0.88448    0.08295    0.29329    1.000
    Si5223   Si       0.87450    0.08154    0.33580    1.000
    Si5224   Si       0.92567    0.03187    0.36790    1.000
    N5225    N        0.91609    0.18681    0.44437    1.000
    N5226    N        0.87247    0.00986    0.28275    1.000
    N5227    N        0.87250    0.21796    0.26023    1.000
    N5228    N        0.88429    0.20116    0.32682    1.000
    Si5229   Si       0.90087    0.19769    0.28394    1.000
    Si5230   Si       0.89342    0.15719    0.33372    1.000
    N5231    N        0.89712    0.15446    0.28986    1.000
    Si5232   Si       0.89790    0.23480    0.34966    1.000
    N5233    N        0.89175    0.22343    0.39059    1.000
    Si5234   Si       0.92451    0.10953    0.37030    1.000
    Si5235   Si       0.91831    0.03181    0.44307    1.000
    N5236    N        0.91439    0.11944    0.41175    1.000
    N5237    N        0.88098    0.05621    0.44133    1.000
    Si5238   Si       0.90579    0.09451    0.45010    1.000
    N5239    N        0.91417    0.08463    0.49607    1.000
    Si5240   Si       0.91591    0.22591    0.42661    1.000
    Si5241   Si       0.89388    0.15472    0.42944    1.000
    Si5242   Si       0.87181    0.05051    0.26531    1.000
    N5243    N        0.87629    0.12784    0.46078    1.000
    N5244    N        0.91939    0.01005    0.40488    1.000
    Si5245   Si       0.89064    0.05235    0.51885    1.000
    Si5246   Si       0.90845    0.02402    0.61888    1.000
    N5247    N        0.92444    0.06265    0.61088    1.000
    N5248    N        0.92933    0.04025    0.53378    1.000
    Si5249   Si       0.90054    0.09777    0.61920    1.000
    N5250    N        0.90020    0.13648    0.53606    1.000
    Si5251   Si       0.91215    0.17817    0.54843    1.000
    N5252    N        0.89501    0.21332    0.52554    1.000
    Si5253   Si       0.92951    0.24009    0.51941    1.000
    N5254    N        0.87257    0.17309    0.57454    1.000
    N5255    N        0.92215    0.13511    0.62592    1.000
    N5256    N        0.88898    0.09776    0.66090    1.000
    N5257    N        0.89414    0.15551    0.74579    1.000
    Si5258   Si       0.90980    0.13464    0.66755    1.000
    N5259    N        0.87973    0.23610    0.62049    1.000
    N5260    N        0.92631    0.23120    0.67518    1.000
    N5261    N        0.87881    0.21427    0.72411    1.000
    Si5262   Si       0.92034    0.22113    0.71747    1.000
    Si5263   Si       0.89463    0.25277    0.65711    1.000
    N5264    N        0.87861    0.16419    0.67481    1.000
    N5265    N        0.88147    0.10642    0.84829    1.000
    Si5266   Si       0.92177    0.12129    0.84624    1.000
    N5267    N        0.91357    0.20937    0.78812    1.000
    Si5268   Si       0.89060    0.16862    0.78594    1.000
    N5269    N        0.91710    0.15531    0.81769    1.000
    Si5270   Si       0.88648    0.24396    0.79137    1.000
    N5271    N        0.89157    0.06395    0.90409    1.000
    Si5272   Si       0.87249    0.02584    0.91346    1.000
    Si5273   Si       0.91808    0.16782    0.98754    1.000
    N5274    N        0.91182    0.18843    0.89542    1.000
    Si5275   Si       0.88666    0.19267    0.93005    1.000
    N5276    N        0.89234    0.22963    0.95468    1.000
    N5277    N        0.89061    0.15815    0.95447    1.000
    N5278    N        0.90211    0.06124    0.74164    1.000
    N5279    N        0.91756    0.30507    0.10749    1.000
    N5280    N        0.89721    0.37347    0.10378    1.000
    Si5281   Si       0.88256    0.33252    0.10437    1.000
    N5282    N        0.90328    0.37339    0.02901    1.000
    N5283    N        0.87683    0.27041    0.01055    1.000
    N5284    N        0.91995    0.30868    0.03442    1.000
    Si5285   Si       0.91949    0.26763    0.01953    1.000
    Si5286   Si       0.87649    0.31154    0.02840    1.000
    Si5287   Si       0.91938    0.38504    0.06726    1.000
    N5288    N        0.91415    0.46963    0.01329    1.000
    Si5289   Si       0.89368    0.47156    0.10930    1.000
    N5290    N        0.87594    0.49120    0.07509    1.000
    N5291    N        0.88433    0.40079    0.15911    1.000
    Si5292   Si       0.92510    0.28016    0.14027    1.000
    Si5293   Si       0.92170    0.27619    0.21944    1.000
    N5294    N        0.90030    0.28065    0.17861    1.000
    Si5295   Si       0.88653    0.32424    0.17286    1.000
    N5296    N        0.92578    0.34210    0.16429    1.000
    N5297    N        0.86981    0.33987    0.20781    1.000
    N5298    N        0.91598    0.46575    0.19783    1.000
    Si5299   Si       0.92500    0.38330    0.14720    1.000
    N5300    N        0.89411    0.40634    0.22923    1.000
    Si5301   Si       0.89538    0.42807    0.19150    1.000
    N5302    N        0.88468    0.49287    0.14644    1.000
    Si5303   Si       0.87942    0.37558    0.99351    1.000
    N5304    N        0.90812    0.31678    0.31795    1.000
    Si5305   Si       0.89305    0.30401    0.35642    1.000
    Si5306   Si       0.88666    0.31477    0.27783    1.000
    Si5307   Si       0.92024    0.36057    0.31406    1.000
    N5308    N        0.87972    0.37122    0.33617    1.000
    N5309    N        0.89388    0.28059    0.25235    1.000
    N5310    N        0.87949    0.35834    0.27206    1.000
    N5311    N        0.90431    0.46868    0.26615    1.000
    Si5312   Si       0.89609    0.42656    0.26891    1.000
    Si5313   Si       0.88747    0.50058    0.29003    1.000
    N5314    N        0.91323    0.44220    0.35515    1.000
    Si5315   Si       0.91710    0.48781    0.35621    1.000
    N5316    N        0.91153    0.32779    0.44484    1.000
    Si5317   Si       0.89768    0.36918    0.43842    1.000
    Si5318   Si       0.91783    0.28980    0.46711    1.000
    N5319    N        0.89598    0.25752    0.44815    1.000
    N5320    N        0.91450    0.39951    0.46494    1.000
    Si5321   Si       0.89091    0.49332    0.42356    1.000
    Si5322   Si       0.89241    0.42659    0.38924    1.000
    N5323    N        0.90326    0.45191    0.42131    1.000
    N5324    N        0.90799    0.38478    0.39873    1.000
    N5325    N        0.88183    0.49925    0.38169    1.000
    N5326    N        0.93073    0.41257    0.28955    1.000
    Si5327   Si       0.89977    0.31038    0.54286    1.000
    N5328    N        0.89511    0.29099    0.58033    1.000
    N5329    N        0.91498    0.28247    0.51142    1.000
    N5330    N        0.92495    0.34472    0.54547    1.000
    Si5331   Si       0.92703    0.29532    0.61052    1.000
    Si5332   Si       0.91328    0.38291    0.56083    1.000
    N5333    N        0.92116    0.38699    0.60367    1.000
    Si5334   Si       0.90448    0.45375    0.53908    1.000
    N5335    N        0.92284    0.41498    0.53028    1.000
    N5336    N        0.88016    0.45438    0.57403    1.000
    Si5337   Si       0.87705    0.49085    0.59840    1.000
    N5338    N        0.87591    0.44878    0.50443    1.000
    Si5339   Si       0.89069    0.40800    0.50003    1.000
    N5340    N        0.90452    0.29535    0.64983    1.000
    N5341    N        0.89618    0.38094    0.67555    1.000
    N5342    N        0.89282    0.49857    0.63834    1.000
    Si5343   Si       0.90172    0.40453    0.63871    1.000
    Si5344   Si       0.92751    0.38499    0.70569    1.000
    N5345    N        0.89029    0.45197    0.71691    1.000
    N5346    N        0.92903    0.43960    0.64573    1.000
    Si5347   Si       0.90007    0.31234    0.82012    1.000
    Si5348   Si       0.89175    0.36242    0.77051    1.000
    N5349    N        0.91080    0.26992    0.81931    1.000
    N5350    N        0.92131    0.34201    0.79560    1.000
    N5351    N        0.90102    0.32444    0.86125    1.000
    Si5352   Si       0.88736    0.48675    0.79580    1.000
    N5353    N        0.88816    0.44389    0.78970    1.000
    Si5354   Si       0.88598    0.41257    0.82149    1.000
    N5355    N        0.88079    0.48994    0.83838    1.000
    Si5356   Si       0.91132    0.43471    0.75388    1.000
    N5357    N        0.92722    0.40303    0.82854    1.000
    N5358    N        0.92374    0.50555    0.78396    1.000
    N5359    N        0.91039    0.39160    0.74492    1.000
    Si5360   Si       0.88769    0.37578    0.92794    1.000
    N5361    N        0.88882    0.46905    0.90090    1.000
    N5362    N        0.91011    0.38164    0.96327    1.000
    Si5363   Si       0.87709    0.48816    0.93765    1.000
    Si5364   Si       0.90099    0.50144    0.87465    1.000
    Si5365   Si       0.88583    0.42614    0.88980    1.000
    N5366    N        0.91318    0.39500    0.89804    1.000
    N5367    N        0.89273    0.60790    0.02426    1.000
    N5368    N        0.90877    0.53462    0.02868    1.000
    N5369    N        0.92013    0.62216    0.10860    1.000
    N5370    N        0.91738    0.54621    0.09693    1.000
    Si5371   Si       0.92418    0.63018    0.00820    1.000
    Si5372   Si       0.91217    0.68825    0.15660    1.000
    N5373    N        0.90285    0.73618    0.04376    1.000
    Si5374   Si       0.91181    0.66354    0.09709    1.000
    Si5375   Si       0.90837    0.69499    0.04466    1.000
    N5376    N        0.91327    0.67270    0.00907    1.000
    N5377    N        0.88031    0.66990    0.06798    1.000
    Si5378   Si       0.89886    0.53535    0.13527    1.000
    Si5379   Si       0.90126    0.60572    0.20575    1.000
    Si5380   Si       0.88246    0.62316    0.13632    1.000
    N5381    N        0.92827    0.57203    0.22170    1.000
    N5382    N        0.90342    0.75560    0.22740    1.000
    Si5383   Si       0.92969    0.72176    0.23081    1.000
    N5384    N        0.91394    0.63597    0.23727    1.000
    N5385    N        0.91055    0.72802    0.14190    1.000
    N5386    N        0.88033    0.66712    0.13534    1.000
    N5387    N        0.92740    0.69261    0.19835    1.000
    Si5388   Si       0.90497    0.62036    0.32498    1.000
    Si5389   Si       0.90419    0.57197    0.25988    1.000
    N5390    N        0.90293    0.56730    0.36017    1.000
    N5391    N        0.91618    0.58500    0.29875    1.000
    N5392    N        0.88209    0.53446    0.26470    1.000
    N5393    N        0.91456    0.51322    0.32241    1.000
    Si5394   Si       0.92857    0.55368    0.32804    1.000
    Si5395   Si       0.91847    0.70199    0.30218    1.000
    N5396    N        0.90125    0.70512    0.26067    1.000
    N5397    N        0.91266    0.73502    0.33106    1.000
    N5398    N        0.90684    0.65915    0.30248    1.000
    Si5399   Si       0.89003    0.66087    0.26164    1.000
    Si5400   Si       0.87386    0.74698    0.35085    1.000
    N5401    N        0.92323    0.52060    0.43192    1.000
    N5402    N        0.90227    0.61804    0.41812    1.000
    N5403    N        0.87946    0.56582    0.46273    1.000
    Si5404   Si       0.92200    0.55127    0.46165    1.000
    Si5405   Si       0.92481    0.59397    0.38667    1.000
    Si5406   Si       0.91172    0.68799    0.48568    1.000
    Si5407   Si       0.90923    0.74083    0.44965    1.000
    N5408    N        0.89419    0.69928    0.44534    1.000
    N5409    N        0.92573    0.73016    0.49170    1.000
    Si5410   Si       0.92464    0.65587    0.42965    1.000
    N5411    N        0.90033    0.52573    0.58062    1.000
    Si5412   Si       0.88765    0.56372    0.59665    1.000
    Si5413   Si       0.91341    0.60879    0.55955    1.000
    N5414    N        0.87720    0.58330    0.55648    1.000
    N5415    N        0.92442    0.58682    0.59930    1.000
    Si5416   Si       0.92231    0.75100    0.52936    1.000
    N5417    N        0.90853    0.64827    0.57511    1.000
    N5418    N        0.90516    0.72464    0.56021    1.000
    Si5419   Si       0.90382    0.73514    0.60199    1.000
    Si5420   Si       0.89103    0.68335    0.55737    1.000
    N5421    N        0.88306    0.67688    0.51514    1.000
    N5422    N        0.91326    0.56698    0.66772    1.000
    Si5423   Si       0.91585    0.58630    0.71100    1.000
    Si5424   Si       0.89918    0.52533    0.67392    1.000
    N5425    N        0.87676    0.60568    0.70269    1.000
    N5426    N        0.90448    0.55434    0.74059    1.000
    Si5427   Si       0.91054    0.65101    0.62095    1.000
    Si5428   Si       0.87683    0.74959    0.66777    1.000
    N5429    N        0.91375    0.69574    0.62277    1.000
    N5430    N        0.88038    0.66915    0.74314    1.000
    Si5431   Si       0.88298    0.70746    0.72251    1.000
    N5432    N        0.92494    0.72016    0.72630    1.000
    N5433    N        0.93033    0.61894    0.74191    1.000
    N5434    N        0.87566    0.70847    0.68053    1.000
    Si5435   Si       0.91998    0.54983    0.78122    1.000
    N5436    N        0.88144    0.56110    0.80110    1.000
    N5437    N        0.88717    0.59156    0.85779    1.000
    N5438    N        0.88305    0.62999    0.79424    1.000
    Si5439   Si       0.89573    0.62789    0.83807    1.000
    Si5440   Si       0.91117    0.64829    0.76506    1.000
    Si5441   Si       0.89418    0.75688    0.86055    1.000
    N5442    N        0.87803    0.53641    0.89070    1.000
    Si5443   Si       0.88390    0.57879    0.89867    1.000
    N5444    N        0.92223    0.57619    0.91688    1.000
    N5445    N        0.91572    0.62932    0.96550    1.000
    N5446    N        0.91098    0.50911    0.95440    1.000
    N5447    N        0.88219    0.71718    0.87391    1.000
    N5448    N        0.87948    0.75328    0.93172    1.000
    Si5449   Si       0.87615    0.70908    0.91786    1.000
    N5450    N        0.91193    0.68874    0.93093    1.000
    Si5451   Si       0.90019    0.67195    0.96845    1.000
    Si5452   Si       0.91996    0.50890    0.99643    1.000
    Si5453   Si       0.90171    0.86715    0.10068    1.000
    Si5454   Si       0.88520    0.77413    0.06168    1.000
    N5455    N        0.92012    0.79782    0.05220    1.000
    Si5456   Si       0.92979    0.76604    0.02341    1.000
    N5457    N        0.87204    0.83410    0.10161    1.000
    N5458    N        0.92356    0.95392    0.11408    1.000
    N5459    N        0.88451    0.89024    0.06970    1.000
    N5460    N        0.90915    0.94501    0.03490    1.000
    Si5461   Si       0.89540    0.98574    0.02710    1.000
    Si5462   Si       0.89979    0.90216    0.03153    1.000
    Si5463   Si       0.92208    0.99116    0.09105    1.000
    N5464    N        0.89183    0.00749    0.06235    1.000
    Si5465   Si       0.89273    0.80355    0.13029    1.000
    N5466    N        0.91090    0.83221    0.15881    1.000
    Si5467   Si       0.88385    0.86345    0.16731    1.000
    Si5468   Si       0.90807    0.79771    0.23551    1.000
    Si5469   Si       0.90395    0.93214    0.14689    1.000
    N5470    N        0.88703    0.88452    0.20502    1.000
    Si5471   Si       0.91998    0.91076    0.21489    1.000
    N5472    N        0.93020    0.94034    0.18289    1.000
    N5473    N        0.89359    0.00350    0.19425    1.000
    N5474    N        0.89655    0.89062    0.13675    1.000
    N5475    N        0.90709    0.80228    0.27843    1.000
    Si5476   Si       0.88352    0.82594    0.35667    1.000
    N5477    N        0.92206    0.83353    0.33793    1.000
    N5478    N        0.90237    0.93924    0.37941    1.000
    Si5479   Si       0.92064    0.94651    0.33938    1.000
    N5480    N        0.89241    0.91746    0.32238    1.000
    Si5481   Si       0.87863    0.92249    0.28030    1.000
    N5482    N        0.91217    0.92671    0.25353    1.000
    Si5483   Si       0.87914    0.89934    0.36086    1.000
    Si5484   Si       0.91020    0.00668    0.30064    1.000
    N5485    N        0.89844    0.00803    0.34259    1.000
    N5486    N        0.87645    0.76881    0.45521    1.000
    Si5487   Si       0.91742    0.84351    0.41492    1.000
    N5488    N        0.88499    0.81599    0.39952    1.000
    N5489    N        0.90804    0.86148    0.45273    1.000
    N5490    N        0.91089    0.87834    0.38897    1.000
    N5491    N        0.88970    0.95965    0.44564    1.000
    Si5492   Si       0.89404    0.97514    0.40540    1.000
    Si5493   Si       0.91707    0.88932    0.48808    1.000
    N5494    N        0.87562    0.90065    0.48993    1.000
    N5495    N        0.90941    0.79341    0.52875    1.000
    N5496    N        0.89717    0.83667    0.57766    1.000
    Si5497   Si       0.91532    0.85316    0.61379    1.000
    N5498    N        0.92466    0.87154    0.52637    1.000
    Si5499   Si       0.88787    0.93816    0.70911    1.000
    Si5500   Si       0.90035    0.96531    0.57608    1.000
    Si5501   Si       0.91893    0.89514    0.56355    1.000
    N5502    N        0.92694    0.99745    0.58835    1.000
    N5503    N        0.87741    0.95384    0.61088    1.000
    N5504    N        0.87476    0.89881    0.56632    1.000
    N5505    N        0.91399    0.77050    0.68159    1.000
    Si5506   Si       0.91549    0.81471    0.67548    1.000
    N5507    N        0.87499    0.83294    0.67432    1.000
    Si5508   Si       0.87388    0.87639    0.67117    1.000
    N5509    N        0.88668    0.88230    0.62940    1.000
    N5510    N        0.90235    0.00219    0.65550    1.000
    N5511    N        0.89882    0.89532    0.70071    1.000
    N5512    N        0.92715    0.95900    0.70359    1.000
    N5513    N        0.92819    0.93660    0.55568    1.000
    N5514    N        0.93336    0.82079    0.63634    1.000
    N5515    N        0.91795    0.81079    0.76821    1.000
    Si5516   Si       0.88136    0.82940    0.77614    1.000
    Si5517   Si       0.87756    0.86584    0.84413    1.000
    Si5518   Si       0.92698    0.77657    0.79206    1.000
    N5519    N        0.91341    0.86094    0.87005    1.000
    N5520    N        0.89558    0.75767    0.81649    1.000
    Si5521   Si       0.87789    0.97659    0.77817    1.000
    N5522    N        0.87902    0.93928    0.75217    1.000
    Si5523   Si       0.90053    0.93340    0.84063    1.000
    N5524    N        0.91787    0.99684    0.77574    1.000
    N5525    N        0.88267    0.90072    0.81902    1.000
    N5526    N        0.87851    0.96538    0.82132    1.000
    Si5527   Si       0.90265    0.81183    0.97927    1.000
    Si5528   Si       0.91552    0.85674    0.91498    1.000
    Si5529   Si       0.91563    0.77959    0.92580    1.000
    N5530    N        0.89901    0.82024    0.93483    1.000
    N5531    N        0.92441    0.77848    0.88357    1.000
    N5532    N        0.90256    0.76948    0.98996    1.000
    N5533    N        0.88010    0.88047    0.92666    1.000
    N5534    N        0.88504    0.93931    0.88017    1.000
    N5535    N        0.91966    0.99657    0.99206    1.000
    Si5536   Si       0.89734    0.99112    0.95616    1.000
    N5537    N        0.90933    0.99970    0.91435    1.000
    N5538    N        0.88266    0.94982    0.95307    1.000
    N5539    N        0.87302    0.82962    0.82059    1.000
    N5540    N        0.93389    0.12991    0.00310    1.000
    Si5541   Si       0.97449    0.12935    0.02529    1.000
    N5542    N        0.98882    0.02228    0.01060    1.000
    N5543    N        0.96480    0.12952    0.06749    1.000
    N5544    N        0.98597    0.09297    0.00480    1.000
    N5545    N        0.93349    0.24753    0.05794    1.000
    Si5546   Si       0.97621    0.24762    0.06819    1.000
    N5547    N        0.97433    0.22980    0.10870    1.000
    N5548    N        0.96146    0.12177    0.17721    1.000
    N5549    N        0.97700    0.04979    0.23441    1.000
    Si5550   Si       0.94914    0.03982    0.14425    1.000
    Si5551   Si       0.95838    0.12990    0.22306    1.000
    N5552    N        0.98814    0.05730    0.14237    1.000
    Si5553   Si       0.95696    0.20758    0.23724    1.000
    N5554    N        0.93750    0.23775    0.20904    1.000
    N5555    N        0.97923    0.16447    0.12644    1.000
    N5556    N        0.93929    0.16837    0.22491    1.000
    Si5557   Si       0.95031    0.19583    0.12271    1.000
    N5558    N        0.93126    0.19219    0.16055    1.000
    N5559    N        0.96692    0.03051    0.35465    1.000
    Si5560   Si       0.97462    0.04305    0.31285    1.000
    N5561    N        0.94167    0.03347    0.28657    1.000
    Si5562   Si       0.97472    0.01293    0.25776    1.000
    Si5563   Si       0.93845    0.06450    0.25368    1.000
    N5564    N        0.93176    0.10621    0.25035    1.000
    Si5565   Si       0.96968    0.22481    0.31437    1.000
    N5566    N        0.94216    0.21195    0.27850    1.000
    Si5567   Si       0.97077    0.16063    0.36545    1.000
    N5568    N        0.93581    0.24740    0.33514    1.000
    N5569    N        0.97911    0.20398    0.35404    1.000
    N5570    N        0.96763    0.10121    0.37904    1.000
    N5571    N        0.94429    0.06852    0.44158    1.000
    Si5572   Si       0.96044    0.11648    0.42366    1.000
    N5573    N        0.98448    0.04552    0.48890    1.000
    Si5574   Si       0.98641    0.05972    0.44870    1.000
    Si5575   Si       0.97295    0.24879    0.45249    1.000
    N5576    N        0.94683    0.22990    0.48041    1.000
    N5577    N        0.97477    0.15715    0.41004    1.000
    Si5578   Si       0.94880    0.18254    0.47283    1.000
    N5579    N        0.94409    0.13347    0.46452    1.000
    N5580    N        0.95787    0.23113    0.41682    1.000
    N5581    N        0.93227    0.14828    0.35095    1.000
    Si5582   Si       0.96750    0.06659    0.60609    1.000
    N5583    N        0.96580    0.10650    0.52376    1.000
    N5584    N        0.97389    0.10863    0.59044    1.000
    Si5585   Si       0.95251    0.01605    0.55951    1.000
    N5586    N        0.98330    0.04310    0.57208    1.000
    Si5587   Si       0.95399    0.06795    0.51147    1.000
    Si5588   Si       0.93134    0.12750    0.50583    1.000
    Si5589   Si       0.97886    0.24809    0.58327    1.000
    Si5590   Si       0.95745    0.14618    0.60606    1.000
    N5591    N        0.95954    0.23087    0.54788    1.000
    N5592    N        0.94467    0.17828    0.57871    1.000
    N5593    N        0.94718    0.17284    0.51559    1.000
    Si5594   Si       0.97520    0.18788    0.55061    1.000
    N5595    N        0.95262    0.02126    0.71609    1.000
    N5596    N        0.98669    0.15654    0.63507    1.000
    Si5597   Si       0.93576    0.15244    0.73199    1.000
    N5598    N        0.94502    0.13848    0.69151    1.000
    N5599    N        0.93803    0.25564    0.73718    1.000
    Si5600   Si       0.96052    0.24965    0.65627    1.000
    N5601    N        0.95161    0.19461    0.72797    1.000
    Si5602   Si       0.98553    0.14287    0.67732    1.000
    Si5603   Si       0.99044    0.20432    0.70658    1.000
    N5604    N        0.96416    0.05406    0.77801    1.000
    N5605    N        0.95572    0.09890    0.82947    1.000
    Si5606   Si       0.96861    0.09582    0.78736    1.000
    Si5607   Si       0.98099    0.07448    0.85952    1.000
    N5608    N        0.95592    0.12703    0.76152    1.000
    Si5609   Si       0.93489    0.03233    0.75325    1.000
    N5610    N        0.97823    0.19769    0.79262    1.000
    N5611    N        0.94855    0.22061    0.84892    1.000
    Si5612   Si       0.96500    0.23006    0.76453    1.000
    Si5613   Si       0.94110    0.19174    0.81602    1.000
    N5614    N        0.95829    0.04568    0.88430    1.000
    Si5615   Si       0.95576    0.10338    0.97388    1.000
    N5616    N        0.93527    0.11692    0.88929    1.000
    N5617    N        0.94418    0.07376    0.94743    1.000
    Si5618   Si       0.93236    0.07614    0.90629    1.000
    Si5619   Si       0.95040    0.20521    0.88807    1.000
    Si5620   Si       0.97313    0.13339    0.90473    1.000
    N5621    N        0.94831    0.19353    0.96747    1.000
    Si5622   Si       0.93679    0.23255    0.95475    1.000
    N5623    N        0.98131    0.17511    0.89415    1.000
    Si5624   Si       0.98637    0.17115    0.96717    1.000
    N5625    N        0.97374    0.13575    0.94892    1.000
    N5626    N        0.95375    0.24147    0.91588    1.000
    N5627    N        0.95176    0.35307    0.06422    1.000
    Si5628   Si       0.94344    0.30904    0.07260    1.000
    N5629    N        0.98142    0.29012    0.07628    1.000
    Si5630   Si       0.94086    0.35071    0.02123    1.000
    Si5631   Si       0.98402    0.37211    0.08743    1.000
    N5632    N        0.96580    0.39220    0.00560    1.000
    N5633    N        0.95389    0.49331    0.06549    1.000
    Si5634   Si       0.95929    0.43597    0.09969    1.000
    Si5635   Si       0.94670    0.45950    0.03841    1.000
    N5636    N        0.93584    0.42585    0.06508    1.000
    N5637    N        0.98670    0.45536    0.01864    1.000
    N5638    N        0.96045    0.39481    0.11703    1.000
    N5639    N        0.97439    0.37076    0.22918    1.000
    Si5640   Si       0.96074    0.32110    0.18090    1.000
    N5641    N        0.95340    0.30909    0.22301    1.000
    N5642    N        0.96466    0.28350    0.15693    1.000
    Si5643   Si       0.93670    0.47335    0.23682    1.000
    Si5644   Si       0.97150    0.43487    0.19467    1.000
    N5645    N        0.96711    0.44038    0.23859    1.000
    N5646    N        0.94179    0.41017    0.17828    1.000
    N5647    N        0.97515    0.47256    0.17228    1.000
    Si5648   Si       0.93260    0.48220    0.16146    1.000
    N5649    N        0.93318    0.46165    0.12335    1.000
    N5650    N        0.95753    0.35595    0.28799    1.000
    Si5651   Si       0.96246    0.28275    0.34559    1.000
    Si5652   Si       0.98434    0.36263    0.32512    1.000
    Si5653   Si       0.97276    0.33381    0.25368    1.000
    N5654    N        0.98508    0.32210    0.34011    1.000
    N5655    N        0.95081    0.38305    0.34532    1.000
    Si5656   Si       0.96359    0.39761    0.26343    1.000
    N5657    N        0.97575    0.44915    0.33547    1.000
    Si5658   Si       0.94336    0.42293    0.32918    1.000
    Si5659   Si       0.93629    0.43231    0.44423    1.000
    N5660    N        0.96682    0.34915    0.40554    1.000
    Si5661   Si       0.94193    0.31476    0.41576    1.000
    N5662    N        0.95534    0.28786    0.44588    1.000
    N5663    N        0.93226    0.29649    0.37785    1.000
    N5664    N        0.96988    0.37153    0.49677    1.000
    N5665    N        0.96466    0.41806    0.41499    1.000
    Si5666   Si       0.95145    0.38489    0.38847    1.000
    N5667    N        0.95420    0.45323    0.47728    1.000
    N5668    N        0.95564    0.49753    0.37410    1.000
    N5669    N        0.98604    0.26716    0.30484    1.000
    Si5670   Si       0.96777    0.35107    0.53578    1.000
    Si5671   Si       0.96111    0.36825    0.60958    1.000
    N5672    N        0.97783    0.37596    0.56896    1.000
    N5673    N        0.95288    0.26107    0.61415    1.000
    N5674    N        0.93936    0.47967    0.53832    1.000
    N5675    N        0.95543    0.49020    0.60830    1.000
    Si5676   Si       0.95776    0.41336    0.50086    1.000
    Si5677   Si       0.95835    0.49106    0.50261    1.000
    N5678    N        0.95096    0.32863    0.62548    1.000
    Si5679   Si       0.98420    0.34767    0.71978    1.000
    Si5680   Si       0.97357    0.27507    0.72311    1.000
    Si5681   Si       0.94189    0.31741    0.66806    1.000
    N5682    N        0.94521    0.34572    0.70053    1.000
    N5683    N        0.96904    0.28673    0.67976    1.000
    N5684    N        0.98389    0.31041    0.74454    1.000
    N5685    N        0.94076    0.50838    0.67948    1.000
    Si5686   Si       0.98063    0.42484    0.73572    1.000
    Si5687   Si       0.93186    0.48211    0.64344    1.000
    Si5688   Si       0.96651    0.42688    0.65936    1.000
    N5689    N        0.95785    0.41521    0.70014    1.000
    N5690    N        0.98059    0.38908    0.64135    1.000
    N5691    N        0.99221    0.42623    0.52088    1.000
    Si5692   Si       0.95412    0.36227    0.82112    1.000
    N5693    N        0.96067    0.35333    0.86372    1.000
    N5694    N        0.96846    0.28834    0.86733    1.000
    N5695    N        0.97189    0.26165    0.79550    1.000
    N5696    N        0.98615    0.32613    0.81515    1.000
    Si5697   Si       0.95289    0.26153    0.83473    1.000
    Si5698   Si       0.97949    0.49645    0.85721    1.000
    N5699    N        0.95208    0.44499    0.76178    1.000
    Si5700   Si       0.96313    0.42551    0.83261    1.000
    N5701    N        0.96777    0.46777    0.82453    1.000
    Si5702   Si       0.95807    0.48036    0.78409    1.000
    N5703    N        0.95434    0.33524    0.98363    1.000
    Si5704   Si       0.95255    0.37678    0.96721    1.000
    Si5705   Si       0.95476    0.30035    0.95789    1.000
    N5706    N        0.94344    0.26553    0.98223    1.000
    Si5707   Si       0.94010    0.32060    0.88069    1.000
    Si5708   Si       0.98317    0.26787    0.90546    1.000
    N5709    N        0.93358    0.31536    0.92246    1.000
    N5710    N        0.97618    0.37721    0.93053    1.000
    N5711    N        0.97428    0.42344    0.87516    1.000
    Si5712   Si       0.95579    0.38559    0.89242    1.000
    N5713    N        0.98593    0.39365    0.80802    1.000
    N5714    N        0.95996    0.57276    0.06021    1.000
    Si5715   Si       0.93950    0.58400    0.09733    1.000
    Si5716   Si       0.98548    0.60199    0.04412    1.000
    Si5717   Si       0.93809    0.53404    0.05949    1.000
    N5718    N        0.96618    0.63124    0.01788    1.000
    N5719    N        0.94350    0.67684    0.06689    1.000
    N5720    N        0.97562    0.73877    0.10980    1.000
    Si5721   Si       0.98473    0.66727    0.06270    1.000
    N5722    N        0.93084    0.52741    0.16611    1.000
    N5723    N        0.96469    0.58755    0.13168    1.000
    Si5724   Si       0.95290    0.54303    0.20067    1.000
    Si5725   Si       0.95499    0.62886    0.14026    1.000
    N5726    N        0.95801    0.51159    0.23258    1.000
    N5727    N        0.93229    0.62406    0.17806    1.000
    N5728    N        0.98486    0.65354    0.21754    1.000
    Si5729   Si       0.98444    0.74185    0.19319    1.000
    N5730    N        0.97511    0.72766    0.23225    1.000
    Si5731   Si       0.98207    0.69633    0.12308    1.000
    Si5732   Si       0.94479    0.75469    0.13405    1.000
    N5733    N        0.94536    0.67305    0.13153    1.000
    Si5734   Si       0.94221    0.65324    0.20737    1.000
    N5735    N        0.97191    0.55923    0.32879    1.000
    Si5736   Si       0.97655    0.60144    0.33593    1.000
    N5737    N        0.93980    0.62130    0.35323    1.000
    N5738    N        0.96091    0.71638    0.29429    1.000
    Si5739   Si       0.95266    0.74897    0.32255    1.000
    N5740    N        0.97289    0.74047    0.36084    1.000
    Si5741   Si       0.95756    0.65223    0.37472    1.000
    N5742    N        0.95525    0.56731    0.40098    1.000
    N5743    N        0.95025    0.58515    0.46608    1.000
    Si5744   Si       0.95796    0.52524    0.40554    1.000
    Si5745   Si       0.97391    0.59306    0.42938    1.000
    Si5746   Si       0.95418    0.62260    0.49144    1.000
    N5747    N        0.93536    0.68368    0.39398    1.000
    N5748    N        0.96487    0.63145    0.41359    1.000
    N5749    N        0.93874    0.74713    0.42042    1.000
    Si5750   Si       0.96870    0.74223    0.49353    1.000
    Si5751   Si       0.95999    0.71867    0.39493    1.000
    N5752    N        0.93276    0.65331    0.47215    1.000
    N5753    N        0.96725    0.53938    0.55722    1.000
    Si5754   Si       0.95908    0.56349    0.51716    1.000
    N5755    N        0.94085    0.60223    0.52833    1.000
    Si5756   Si       0.93946    0.50769    0.57160    1.000
    N5757    N        0.94153    0.75295    0.61557    1.000
    N5758    N        0.98437    0.68521    0.61468    1.000
    N5759    N        0.96802    0.75387    0.53503    1.000
    Si5760   Si       0.94163    0.58667    0.64118    1.000
    N5761    N        0.97760    0.55783    0.64594    1.000
    N5762    N        0.95872    0.57502    0.71013    1.000
    Si5763   Si       0.97209    0.53868    0.68642    1.000
    N5764    N        0.94602    0.63260    0.64043    1.000
    Si5765   Si       0.95463    0.71308    0.63089    1.000
    Si5766   Si       0.98522    0.65195    0.64011    1.000
    N5767    N        0.96486    0.71936    0.67230    1.000
    Si5768   Si       0.94580    0.74734    0.69952    1.000
    N5769    N        0.98524    0.69244    0.73789    1.000
    N5770    N        0.94201    0.53021    0.49516    1.000
    N5771    N        0.96081    0.56886    0.78338    1.000
    N5772    N        0.94094    0.51377    0.87231    1.000
    N5773    N        0.93787    0.63928    0.84212    1.000
    N5774    N        0.96898    0.70908    0.83348    1.000
    Si5775   Si       0.96198    0.66864    0.81770    1.000
    Si5776   Si       0.95169    0.71009    0.75743    1.000
    N5777    N        0.95641    0.74910    0.77735    1.000
    N5778    N        0.93680    0.67745    0.78339    1.000
    Si5779   Si       0.97860    0.75168    0.82393    1.000
    Si5780   Si       0.96320    0.62466    0.87353    1.000
    N5781    N        0.96963    0.58125    0.87418    1.000
    N5782    N        0.98333    0.53160    0.92269    1.000
    Si5783   Si       0.95127    0.54929    0.89580    1.000
    Si5784   Si       0.94179    0.60304    0.94297    1.000
    N5785    N        0.97654    0.58203    0.96411    1.000
    Si5786   Si       0.97981    0.53912    0.96465    1.000
    N5787    N        0.96364    0.51477    0.99624    1.000
    N5788    N        0.95483    0.63445    0.91474    1.000
    Si5789   Si       0.95347    0.67733    0.92518    1.000
    Si5790   Si       0.98258    0.74865    0.91139    1.000
    N5791    N        0.97409    0.70701    0.90206    1.000
    N5792    N        0.97020    0.68257    0.96347    1.000
    Si5793   Si       0.98890    0.66206    0.99537    1.000
    Si5794   Si       0.96643    0.59530    0.74607    1.000
    N5795    N        0.94492    0.85636    0.09070    1.000
    Si5796   Si       0.94971    0.81146    0.08136    1.000
    Si5797   Si       0.96399    0.88164    0.05722    1.000
    N5798    N        0.93272    0.79105    0.11602    1.000
    N5799    N        0.93678    0.88012    0.02413    1.000
    Si5800   Si       0.95193    0.95093    0.04063    1.000
    N5801    N        0.95524    0.98814    0.06235    1.000
    Si5802   Si       0.96440    0.93791    0.11042    1.000
    N5803    N        0.96798    0.92203    0.07039    1.000
    N5804    N        0.97177    0.95709    0.00357    1.000
    Si5805   Si       0.97277    0.86421    0.12472    1.000
    Si5806   Si       0.94774    0.81362    0.17331    1.000
    Si5807   Si       0.96582    0.85215    0.23179    1.000
    N5808    N        0.97867    0.84079    0.15971    1.000
    N5809    N        0.94244    0.81913    0.21797    1.000
    N5810    N        0.95851    0.76883    0.17333    1.000
    N5811    N        0.96028    0.88988    0.21174    1.000
    N5812    N        0.96645    0.90520    0.13915    1.000
    Si5813   Si       0.97277    0.91825    0.18130    1.000
    N5814    N        0.95698    0.00456    0.17004    1.000
    N5815    N        0.94976    0.98382    0.23940    1.000
    Si5816   Si       0.93309    0.98379    0.19986    1.000
    N5817    N        0.97042    0.75810    0.00957    1.000
    N5818    N        0.95819    0.85519    0.27538    1.000
    N5819    N        0.96780    0.78728    0.30996    1.000
    Si5820   Si       0.94307    0.82301    0.30129    1.000
    Si5821   Si       0.98671    0.88509    0.29036    1.000
    Si5822   Si       0.94552    0.95045    0.26825    1.000
    N5823    N        0.95666    0.92586    0.35506    1.000
    N5824    N        0.97873    0.92621    0.27790    1.000
    N5825    N        0.92861    0.96782    0.30320    1.000
    N5826    N        0.95404    0.81988    0.41437    1.000
    Si5827   Si       0.96532    0.77934    0.42547    1.000
    N5828    N        0.97344    0.77761    0.46824    1.000
    Si5829   Si       0.98987    0.84388    0.40705    1.000
    N5830    N        0.94073    0.99899    0.46594    1.000
    N5831    N        0.95366    0.93955    0.42390    1.000
    Si5832   Si       0.93288    0.95631    0.45857    1.000
    Si5833   Si       0.93712    0.91232    0.39191    1.000
    Si5834   Si       0.97545    0.00251    0.49047    1.000
    N5835    N        0.98001    0.88737    0.40025    1.000
    N5836    N        0.94047    0.92721    0.48963    1.000
    N5837    N        0.95858    0.81112    0.57278    1.000
    N5838    N        0.97260    0.82283    0.51481    1.000
    Si5839   Si       0.98498    0.79151    0.54597    1.000
    Si5840   Si       0.95814    0.79542    0.61276    1.000
    Si5841   Si       0.93443    0.83032    0.54112    1.000
    N5842    N        0.94668    0.87929    0.59510    1.000
    Si5843   Si       0.98467    0.88666    0.61294    1.000
    N5844    N        0.96881    0.98462    0.53053    1.000
    Si5845   Si       0.95879    0.94184    0.52556    1.000
    Si5846   Si       0.93543    0.99610    0.68097    1.000
    N5847    N        0.93583    0.83683    0.70784    1.000
    N5848    N        0.97835    0.76658    0.71802    1.000
    Si5849   Si       0.93552    0.88084    0.71615    1.000
    Si5850   Si       0.95035    0.83109    0.74885    1.000
    N5851    N        0.96959    0.90742    0.70400    1.000
    Si5852   Si       0.96410    0.94481    0.72502    1.000
    N5853    N        0.97621    0.98657    0.66446    1.000
    N5854    N        0.98844    0.92209    0.63955    1.000
    N5855    N        0.95386    0.79074    0.82363    1.000
    Si5856   Si       0.95387    0.87082    0.85992    1.000
    N5857    N        0.94474    0.87381    0.75705    1.000
    Si5858   Si       0.95811    0.79538    0.86556    1.000
    N5859    N        0.96376    0.87972    0.82017    1.000
    N5860    N        0.98861    0.81880    0.76019    1.000
    N5861    N        0.98830    0.76378    0.87072    1.000
    N5862    N        0.95937    0.93777    0.76792    1.000
    Si5863   Si       0.94611    0.97014    0.79583    1.000
    Si5864   Si       0.97203    0.93922    0.85857    1.000
    Si5865   Si       0.97110    0.89671    0.78173    1.000
    N5866    N        0.93962    0.94416    0.82974    1.000
    N5867    N        0.98336    0.99258    0.80540    1.000
    N5868    N        0.97414    0.83323    0.87457    1.000
    N5869    N        0.95715    0.77141    0.93819    1.000
    Si5870   Si       0.97101    0.78938    0.97753    1.000
    Si5871   Si       0.95290    0.86628    0.98459    1.000
    N5872    N        0.94291    0.82417    0.98566    1.000
    N5873    N        0.94430    0.87728    0.94286    1.000
    N5874    N        0.96649    0.90481    0.88405    1.000
    N5875    N        0.97013    0.97360    0.88468    1.000
    Si5876   Si       0.96218    0.99709    0.98689    1.000
    N5877    N        0.97196    0.00001    0.94296    1.000
    Si5878   Si       0.98142    0.89447    0.92518    1.000
    Si5879   Si       0.94949    0.00843    0.90467    1.000
