# CIF file generated by openbabel 3.1.1, see https://openbabel.org
data_I
_chemical_name_common '3.01-67.aims'
_cell_length_a 39.9099
_cell_length_b 39.9099
_cell_length_c 39.9099
_cell_angle_alpha 90
_cell_angle_beta 90
_cell_angle_gamma 90
loop_
    _atom_site_label
    _atom_site_type_symbol
    _atom_site_fract_x
    _atom_site_fract_y
    _atom_site_fract_z
    _atom_site_occupancy
    Si0      Si       0.06642    0.07604    0.03268    1.000
    N1       N        0.08355    0.03785    0.02301    1.000
    N2       N        0.09121    0.10403    0.05422    1.000
    N3       N        0.98747    0.08418    0.01937    1.000
    N4       N        0.15292    0.10537    0.02412    1.000
    N5       N        0.15249    0.03150    0.04185    1.000
    Si6      Si       0.12120    0.13237    0.03876    1.000
    Si7      Si       0.15515    0.07436    0.05427    1.000
    N8       N        0.24120    0.05163    0.01966    1.000
    N9       N        0.06038    0.21329    0.01376    1.000
    N10      N        0.02189    0.16020    0.01088    1.000
    N11      N        0.10283    0.15863    0.00931    1.000
    Si12     Si       0.06342    0.17301    0.00052    1.000
    Si13     Si       0.02020    0.16447    0.05404    1.000
    Si14     Si       0.05041    0.25198    0.99520    1.000
    N15      N        0.23660    0.18229    0.01849    1.000
    Si16     Si       0.19378    0.18669    0.00604    1.000
    Si17     Si       0.19953    0.23930    0.05022    1.000
    N18      N        0.22808    0.25602    0.02235    1.000
    N19      N        0.17831    0.20219    0.04214    1.000
    Si20     Si       0.04346    0.04226    0.09569    1.000
    Si21     Si       0.09515    0.09016    0.09718    1.000
    N22      N        0.03715    0.07256    0.06560    1.000
    Si23     Si       0.99996    0.09336    0.06054    1.000
    N24      N        0.03109    0.00641    0.07305    1.000
    N25      N        0.19641    0.08251    0.07771    1.000
    N26      N        0.13549    0.07541    0.09337    1.000
    Si27     Si       0.20730    0.12377    0.10036    1.000
    N28      N        0.21907    0.01639    0.06991    1.000
    Si29     Si       0.23002    0.05840    0.06081    1.000
    N30      N        0.99761    0.13342    0.07396    1.000
    N31      N        0.06125    0.17210    0.06760    1.000
    Si32     Si       0.09034    0.16063    0.09852    1.000
    Si33     Si       0.00793    0.24176    0.06882    1.000
    N34      N        0.04980    0.23545    0.08298    1.000
    N35      N        0.11362    0.22660    0.05907    1.000
    N36      N        0.99838    0.20194    0.05632    1.000
    Si37     Si       0.07214    0.21292    0.05548    1.000
    N38      N        0.21729    0.16528    0.08748    1.000
    N39      N        0.12718    0.15787    0.07497    1.000
    Si40     Si       0.20363    0.20111    0.11307    1.000
    Si41     Si       0.14454    0.19857    0.07127    1.000
    N42      N        0.21931    0.23369    0.08695    1.000
    Si43     Si       0.08971    0.04566    0.15892    1.000
    Si44     Si       0.06186    0.10684    0.15621    1.000
    Si45     Si       0.02005    0.03709    0.16526    1.000
    N46      N        0.00982    0.03303    0.12269    1.000
    N47      N        0.02804    0.08006    0.16595    1.000
    N48      N        0.05978    0.02105    0.17541    1.000
    N49      N        0.08090    0.12409    0.12028    1.000
    N50      N        0.07491    0.05653    0.11906    1.000
    N51      N        0.17741    0.11521    0.13087    1.000
    Si52     Si       0.22857    0.04604    0.15691    1.000
    N53      N        0.19048    0.04111    0.13455    1.000
    N54      N        0.12696    0.02341    0.15646    1.000
    Si55     Si       0.17227    0.07528    0.11525    1.000
    Si56     Si       0.23767    0.11778    0.16823    1.000
    Si57     Si       0.16838    0.13307    0.17068    1.000
    N58      N        0.99783    0.13913    0.14235    1.000
    N59      N        0.02799    0.20599    0.14432    1.000
    Si60     Si       0.02280    0.16856    0.16431    1.000
    Si61     Si       0.06101    0.22438    0.12471    1.000
    N62      N        0.09422    0.19526    0.12374    1.000
    N63      N        0.14223    0.16588    0.16533    1.000
    Si64     Si       0.13262    0.20215    0.14504    1.000
    N65      N        0.21544    0.21170    0.15470    1.000
    Si66     Si       0.23287    0.25135    0.16448    1.000
    N67      N        0.16171    0.20446    0.11069    1.000
    N68      N        0.99410    0.01279    0.19033    1.000
    N69      N        0.09325    0.08521    0.17644    1.000
    N70      N        0.10454    0.13100    0.23332    1.000
    N71      N        0.23273    0.01091    0.18151    1.000
    Si72     Si       0.11522    0.09468    0.21221    1.000
    N73      N        0.15698    0.09925    0.19811    1.000
    Si74     Si       0.18763    0.07233    0.20983    1.000
    N75      N        0.17488    0.03065    0.21079    1.000
    N76      N        0.22301    0.07911    0.18483    1.000
    Si77     Si       0.07117    0.15830    0.21876    1.000
    N78      N        0.05519    0.14543    0.17978    1.000
    N79      N        0.08251    0.19852    0.22909    1.000
    N80      N        0.99476    0.18405    0.19474    1.000
    Si81     Si       0.21261    0.18815    0.19112    1.000
    N82      N        0.20814    0.14646    0.18390    1.000
    Si83     Si       0.16732    0.24775    0.19564    1.000
    N84      N        0.18616    0.21209    0.21462    1.000
    N85      N        0.13300    0.23745    0.17037    1.000
    Si86     Si       0.09794    0.07518    0.27933    1.000
    Si87     Si       0.02708    0.11635    0.27008    1.000
    N88      N        0.00254    0.08232    0.25544    1.000
    Si89     Si       0.00021    0.05025    0.28404    1.000
    N90      N        0.06074    0.09467    0.28378    1.000
    N91      N        0.11230    0.06041    0.23942    1.000
    N92      N        0.19402    0.08008    0.25344    1.000
    Si93     Si       0.20423    0.12209    0.26037    1.000
    N94      N        0.15459    0.02233    0.27764    1.000
    Si95     Si       0.19120    0.04463    0.28074    1.000
    N96      N        0.22392    0.01878    0.27236    1.000
    Si97     Si       0.14058    0.02579    0.23751    1.000
    N98      N        0.03811    0.15070    0.24681    1.000
    N99      N        0.07165    0.24185    0.27500    1.000
    Si100    Si       0.10123    0.20846    0.26750    1.000
    Si101    Si       0.01267    0.18473    0.25869    1.000
    N102     N        0.01976    0.22919    0.24305    1.000
    Si103    Si       0.02829    0.24062    0.28369    1.000
    N104     N        0.09928    0.17099    0.29027    1.000
    Si105    Si       0.06013    0.23798    0.22994    1.000
    Si106    Si       0.17912    0.19333    0.25574    1.000
    N107     N        0.16872    0.15125    0.25745    1.000
    Si108    Si       0.12714    0.14372    0.27140    1.000
    N109     N        0.14474    0.21593    0.26906    1.000
    N110     N        0.20987    0.19320    0.28606    1.000
    Si111    Si       0.06335    0.02789    0.33321    1.000
    N112     N        0.02297    0.03195    0.31726    1.000
    N113     N        0.09511    0.04008    0.30615    1.000
    N114     N        0.99910    0.13275    0.30299    1.000
    N115     N        0.14374    0.01473    0.34136    1.000
    N116     N        0.19564    0.06117    0.32167    1.000
    Si117    Si       0.22779    0.09085    0.32552    1.000
    Si118    Si       0.13046    0.12124    0.33718    1.000
    N119     N        0.21187    0.12365    0.30357    1.000
    N120     N        0.12456    0.10768    0.29675    1.000
    Si121    Si       0.00619    0.16872    0.32918    1.000
    Si122    Si       0.08388    0.17548    0.32816    1.000
    N123     N        0.04529    0.17230    0.34894    1.000
    N124     N        0.01644    0.20122    0.29800    1.000
    N125     N        0.23519    0.24302    0.32925    1.000
    N126     N        0.22165    0.17713    0.35098    1.000
    N127     N        0.17062    0.22715    0.33913    1.000
    N128     N        0.15700    0.15762    0.33073    1.000
    Si129    Si       0.19820    0.16113    0.31665    1.000
    N130     N        0.05830    0.04330    0.37350    1.000
    N131     N        0.04662    0.10861    0.39866    1.000
    Si132    Si       0.02460    0.02675    0.40136    1.000
    N133     N        0.99396    0.05107    0.38238    1.000
    Si134    Si       0.00575    0.12049    0.40876    1.000
    Si135    Si       0.06805    0.07087    0.40668    1.000
    N136     N        0.24015    0.10975    0.36167    1.000
    N137     N        0.17723    0.06179    0.41020    1.000
    N138     N        0.13885    0.08671    0.36125    1.000
    Si139    Si       0.14018    0.08420    0.40539    1.000
    Si140    Si       0.16320    0.05201    0.34817    1.000
    Si141    Si       0.06119    0.14482    0.37873    1.000
    Si142    Si       0.09477    0.24440    0.36988    1.000
    N143     N        0.06556    0.23970    0.40216    1.000
    N144     N        0.09709    0.14017    0.35533    1.000
    N145     N        0.99410    0.13617    0.36899    1.000
    N146     N        0.10475    0.20867    0.34700    1.000
    Si147    Si       0.21108    0.21894    0.35547    1.000
    N148     N        0.20433    0.22975    0.39614    1.000
    N149     N        0.14880    0.18522    0.39514    1.000
    Si150    Si       0.14592    0.19409    0.35388    1.000
    N151     N        0.04273    0.04776    0.43386    1.000
    N152     N        0.10764    0.05907    0.42129    1.000
    Si153    Si       0.11281    0.01651    0.43528    1.000
    Si154    Si       0.21439    0.07447    0.43348    1.000
    N155     N        0.14156    0.12312    0.42119    1.000
    Si156    Si       0.18495    0.02101    0.42368    1.000
    N157     N        0.21671    0.03350    0.45206    1.000
    N158     N        0.19617    0.10422    0.46119    1.000
    N159     N        0.15380    0.00896    0.44925    1.000
    Si160    Si       0.16217    0.13475    0.45735    1.000
    N161     N        0.07945    0.16291    0.41553    1.000
    N162     N        0.01183    0.15152    0.43700    1.000
    Si163    Si       0.05220    0.15806    0.44972    1.000
    Si164    Si       0.06301    0.23250    0.44350    1.000
    Si165    Si       0.99349    0.25064    0.43304    1.000
    N166     N        0.10272    0.24365    0.46075    1.000
    N167     N        0.17063    0.22884    0.45276    1.000
    Si168    Si       0.18280    0.20062    0.42107    1.000
    Si169    Si       0.22959    0.13658    0.44513    1.000
    Si170    Si       0.12220    0.15989    0.41718    1.000
    N171     N        0.19322    0.16301    0.44412    1.000
    N172     N        0.12693    0.17185    0.46002    1.000
    N173     N        0.05984    0.05852    0.50295    1.000
    Si174    Si       0.04402    0.09989    0.50333    1.000
    N175     N        0.00298    0.09815    0.49338    1.000
    N176     N        0.06739    0.12788    0.47620    1.000
    Si177    Si       0.04989    0.02965    0.47200    1.000
    N178     N        0.14270    0.11674    0.49267    1.000
    Si179    Si       0.17961    0.09566    0.50154    1.000
    Si180    Si       0.21813    0.02659    0.49455    1.000
    N181     N        0.19610    0.05653    0.51509    1.000
    Si182    Si       0.10516    0.14463    0.48929    1.000
    Si183    Si       0.02712    0.21182    0.50431    1.000
    N184     N        0.04315    0.24662    0.52256    1.000
    N185     N        0.05025    0.19887    0.46706    1.000
    N186     N        0.20396    0.25394    0.50485    1.000
    N187     N        0.14523    0.21320    0.51282    1.000
    Si188    Si       0.13286    0.21350    0.47156    1.000
    N189     N        0.04882    0.11532    0.54345    1.000
    N190     N        0.04944    0.04642    0.57064    1.000
    Si191    Si       0.07398    0.03658    0.53672    1.000
    Si192    Si       0.05549    0.08949    0.57861    1.000
    Si193    Si       0.02445    0.01137    0.57827    1.000
    N194     N        0.11416    0.04200    0.55275    1.000
    Si195    Si       0.19465    0.05389    0.55739    1.000
    N196     N        0.17804    0.01652    0.56833    1.000
    N197     N        0.16568    0.08490    0.57087    1.000
    N198     N        0.20331    0.12107    0.52999    1.000
    Si199    Si       0.17871    0.12664    0.56894    1.000
    N200     N        0.23398    0.06413    0.57728    1.000
    N201     N        0.02682    0.18418    0.53708    1.000
    Si202    Si       0.00430    0.20528    0.56849    1.000
    Si203    Si       0.05827    0.15745    0.54894    1.000
    N204     N        0.10983    0.21815    0.57624    1.000
    N205     N        0.09564    0.16640    0.52607    1.000
    N206     N        0.17446    0.21690    0.56868    1.000
    Si207    Si       0.12828    0.18783    0.54526    1.000
    N208     N        0.14285    0.15275    0.56931    1.000
    Si209    Si       0.17296    0.24069    0.53086    1.000
    N210     N        0.03041    0.09619    0.61228    1.000
    N211     N        0.09773    0.09723    0.58843    1.000
    Si212    Si       0.99096    0.11176    0.62199    1.000
    N213     N        0.99241    0.02516    0.60342    1.000
    N214     N        0.22389    0.01340    0.62332    1.000
    N215     N        0.20216    0.08373    0.63536    1.000
    N216     N        0.13618    0.04814    0.62306    1.000
    Si217    Si       0.21339    0.12639    0.63526    1.000
    Si218    Si       0.23197    0.05607    0.62031    1.000
    Si219    Si       0.12811    0.06674    0.58432    1.000
    Si220    Si       0.07646    0.20434    0.59906    1.000
    Si221    Si       0.10907    0.14034    0.59660    1.000
    N222     N        0.07393    0.16354    0.58859    1.000
    N223     N        0.08276    0.21289    0.64007    1.000
    N224     N        0.04193    0.22656    0.58573    1.000
    Si225    Si       0.14431    0.23659    0.59530    1.000
    N226     N        0.15955    0.20919    0.62937    1.000
    N227     N        0.19827    0.14553    0.60102    1.000
    N228     N        0.23035    0.20056    0.60552    1.000
    Si229    Si       0.18825    0.18868    0.60178    1.000
    N230     N        0.12007    0.15364    0.63810    1.000
    N231     N        0.01468    0.08598    0.68459    1.000
    N232     N        0.07594    0.10672    0.66516    1.000
    Si233    Si       0.04519    0.08278    0.64995    1.000
    N234     N        0.05484    0.04294    0.66095    1.000
    Si235    Si       0.99922    0.12537    0.69586    1.000
    N236     N        0.00077    0.02535    0.69881    1.000
    Si237    Si       0.11671    0.12441    0.67030    1.000
    N238     N        0.17298    0.02897    0.66935    1.000
    N239     N        0.15257    0.10179    0.67708    1.000
    Si240    Si       0.16498    0.06872    0.65093    1.000
    Si241    Si       0.20578    0.01553    0.69328    1.000
    Si242    Si       0.14287    0.01059    0.64431    1.000
    N243     N        0.01584    0.20808    0.67245    1.000
    Si244    Si       0.05023    0.23132    0.66203    1.000
    N245     N        0.99531    0.14010    0.65382    1.000
    Si246    Si       0.99523    0.18096    0.64682    1.000
    N247     N        0.06222    0.25524    0.69858    1.000
    N248     N        0.13129    0.19437    0.69310    1.000
    Si249    Si       0.12227    0.19462    0.64966    1.000
    Si250    Si       0.17675    0.24609    0.64673    1.000
    Si251    Si       0.22157    0.17498    0.70092    1.000
    Si252    Si       0.23276    0.23944    0.69054    1.000
    N253     N        0.20731    0.14517    0.67385    1.000
    N254     N        0.19712    0.21357    0.70165    1.000
    N255     N        0.06440    0.07283    0.72705    1.000
    Si256    Si       0.06557    0.11282    0.70896    1.000
    N257     N        0.06433    0.00839    0.71245    1.000
    Si258    Si       0.04014    0.04447    0.70422    1.000
    N259     N        0.20255    0.09531    0.73089    1.000
    N260     N        0.19901    0.02511    0.73419    1.000
    Si261    Si       0.18227    0.05942    0.75345    1.000
    Si262    Si       0.23054    0.11763    0.75837    1.000
    Si263    Si       0.18244    0.12032    0.70281    1.000
    N264     N        0.10352    0.13452    0.71337    1.000
    N265     N        0.03403    0.14176    0.71887    1.000
    Si266    Si       0.05477    0.25065    0.74085    1.000
    N267     N        0.03819    0.20900    0.75391    1.000
    Si268    Si       0.03716    0.16570    0.75605    1.000
    Si269    Si       0.12715    0.16827    0.72705    1.000
    N270     N        0.15760    0.24548    0.74694    1.000
    N271     N        0.16600    0.15030    0.73161    1.000
    Si272    Si       0.15715    0.22813    0.70679    1.000
    N273     N        0.07720    0.08570    0.79179    1.000
    N274     N        0.08370    0.01932    0.77797    1.000
    N275     N        0.02212    0.03661    0.77050    1.000
    Si276    Si       0.06096    0.05443    0.76643    1.000
    Si277    Si       0.00193    0.01433    0.80170    1.000
    Si278    Si       0.05702    0.11494    0.81422    1.000
    N279     N        0.13214    0.00652    0.81124    1.000
    Si280    Si       0.12172    0.08910    0.78853    1.000
    Si281    Si       0.12923    0.01818    0.76908    1.000
    N282     N        0.19974    0.06141    0.79505    1.000
    N283     N        0.13400    0.12991    0.78880    1.000
    N284     N        0.14039    0.05896    0.75935    1.000
    N285     N        0.20823    0.13318    0.79352    1.000
    N286     N        0.06300    0.15143    0.78852    1.000
    Si287    Si       0.10507    0.16258    0.79674    1.000
    N288     N        0.99729    0.16302    0.77436    1.000
    Si289    Si       0.99567    0.20634    0.76567    1.000
    N290     N        0.18016    0.19334    0.78556    1.000
    Si291    Si       0.14654    0.21909    0.77837    1.000
    Si292    Si       0.21763    0.19774    0.80737    1.000
    N293     N        0.11805    0.18775    0.76482    1.000
    N294     N        0.13044    0.23893    0.81221    1.000
    Si295    Si       0.17156    0.15074    0.77699    1.000
    N296     N        0.07990    0.04252    0.85064    1.000
    N297     N        0.08212    0.11595    0.85194    1.000
    Si298    Si       0.10341    0.07947    0.85902    1.000
    Si299    Si       0.04010    0.04018    0.86687    1.000
    N300     N        0.02472    0.01082    0.83914    1.000
    Si301    Si       0.08771    0.01169    0.82122    1.000
    N302     N        0.01230    0.07313    0.87874    1.000
    Si303    Si       0.99071    0.10360    0.85634    1.000
    N304     N        0.01681    0.10709    0.82409    1.000
    Si305    Si       0.17881    0.07231    0.83000    1.000
    N306     N        0.18429    0.03284    0.85009    1.000
    N307     N        0.19990    0.10104    0.85478    1.000
    N308     N        0.13532    0.07875    0.82854    1.000
    Si309    Si       0.22326    0.03081    0.86933    1.000
    N310     N        0.10370    0.17850    0.83850    1.000
    N311     N        0.07448    0.23317    0.86209    1.000
    N312     N        0.00495    0.20354    0.85866    1.000
    Si313    Si       0.08950    0.15358    0.87233    1.000
    Si314    Si       0.99179    0.23871    0.83926    1.000
    Si315    Si       0.11354    0.22187    0.84676    1.000
    Si316    Si       0.22024    0.13549    0.83642    1.000
    N317     N        0.21487    0.17651    0.84423    1.000
    N318     N        0.22097    0.24014    0.81753    1.000
    N319     N        0.04718    0.03428    0.91047    1.000
    Si320    Si       0.02703    0.07261    0.91995    1.000
    N321     N        0.05475    0.10447    0.92880    1.000
    Si322    Si       0.11917    0.03839    0.92039    1.000
    N323     N        0.12248    0.07630    0.89869    1.000
    Si324    Si       0.20958    0.09494    0.89846    1.000
    N325     N        0.21711    0.05364    0.90706    1.000
    Si326    Si       0.13574    0.11208    0.91662    1.000
    N327     N        0.17907    0.11545    0.92194    1.000
    N328     N        0.02961    0.23631    0.91341    1.000
    N329     N        0.05454    0.16941    0.89075    1.000
    Si330    Si       0.03788    0.15064    0.92760    1.000
    N331     N        0.99620    0.13404    0.89018    1.000
    Si332    Si       0.04252    0.20929    0.88012    1.000
    Si333    Si       0.21778    0.19695    0.88219    1.000
    N334     N        0.12087    0.15075    0.90334    1.000
    N335     N        0.18555    0.18078    0.90864    1.000
    Si336    Si       0.14375    0.18856    0.91039    1.000
    Si337    Si       0.16612    0.25371    0.89381    1.000
    N338     N        0.20654    0.23860    0.88283    1.000
    N339     N        0.13894    0.22150    0.88225    1.000
    N340     N        0.09652    0.05108    0.95627    1.000
    Si341    Si       0.08422    0.01946    0.98185    1.000
    Si342    Si       0.08238    0.09171    0.95956    1.000
    Si343    Si       0.01061    0.08708    0.98407    1.000
    N344     N        0.00282    0.05826    0.95273    1.000
    N345     N        0.99869    0.12201    0.96081    1.000
    N346     N        0.05351    0.09018    0.99401    1.000
    N347     N        0.12433    0.11416    0.95936    1.000
    N348     N        0.20065    0.08158    0.97097    1.000
    Si349    Si       0.19910    0.04391    0.94492    1.000
    N350     N        0.22366    0.01354    0.96566    1.000
    Si351    Si       0.16444    0.10861    0.98124    1.000
    N352     N        0.15993    0.02812    0.93412    1.000
    Si353    Si       0.24310    0.08158    0.98772    1.000
    Si354    Si       0.99144    0.16110    0.97901    1.000
    N355     N        0.06760    0.16291    0.95790    1.000
    N356     N        0.00839    0.24324    0.98220    1.000
    Si357    Si       0.99994    0.22539    0.94276    1.000
    N358     N        0.00680    0.18201    0.94327    1.000
    Si359    Si       0.11298    0.15674    0.96530    1.000
    Si360    Si       0.15205    0.23161    0.96397    1.000
    Si361    Si       0.19595    0.15115    0.93931    1.000
    N362     N        0.17859    0.15082    0.98141    1.000
    Si363    Si       0.21633    0.25332    0.98217    1.000
    N364     N        0.19051    0.21849    0.97917    1.000
    N365     N        0.13345    0.19460    0.95164    1.000
    N366     N        0.23695    0.15523    0.95231    1.000
    N367     N        0.13053    0.25264    0.99478    1.000
    N368     N        0.00817    0.27411    0.04215    1.000
    N369     N        0.08974    0.34969    0.01703    1.000
    N370     N        0.01503    0.34384    0.02723    1.000
    N371     N        0.07597    0.28052    0.01598    1.000
    Si372    Si       0.08538    0.31392    0.04210    1.000
    Si373    Si       0.00334    0.37508    0.99624    1.000
    Si374    Si       0.13352    0.26056    0.03805    1.000
    N375     N        0.12855    0.30781    0.04193    1.000
    N376     N        0.16485    0.36026    0.01404    1.000
    Si377    Si       0.13041    0.33640    0.00741    1.000
    Si378    Si       0.17833    0.37512    0.05165    1.000
    Si379    Si       0.06811    0.38877    0.01793    1.000
    N380     N        0.09983    0.41597    0.00206    1.000
    N381     N        0.21692    0.39337    0.04376    1.000
    Si382    Si       0.20517    0.44691    0.01605    1.000
    N383     N        0.16795    0.42693    0.00691    1.000
    Si384    Si       0.13142    0.42897    0.02825    1.000
    N385     N        0.05947    0.31073    0.07573    1.000
    Si386    Si       0.01930    0.31198    0.05528    1.000
    N387     N        0.18454    0.34082    0.07873    1.000
    Si388    Si       0.15719    0.30762    0.07601    1.000
    Si389    Si       0.20932    0.35635    0.11010    1.000
    N390     N        0.16953    0.26699    0.06216    1.000
    Si391    Si       0.09055    0.49169    0.06516    1.000
    N392     N        0.03087    0.44250    0.09723    1.000
    Si393    Si       0.05095    0.40551    0.10110    1.000
    Si394    Si       0.01749    0.47937    0.08297    1.000
    N395     N        0.04471    0.49944    0.05762    1.000
    N396     N        0.08918    0.49727    0.10838    1.000
    N397     N        0.05899    0.39774    0.05785    1.000
    N398     N        0.17328    0.50418    0.08708    1.000
    N399     N        0.11161    0.45553    0.05789    1.000
    Si400    Si       0.12109    0.42779    0.08983    1.000
    N401     N        0.21269    0.45632    0.05780    1.000
    N402     N        0.20991    0.39994    0.10975    1.000
    Si403    Si       0.21367    0.49812    0.07139    1.000
    Si404    Si       0.22946    0.42008    0.07683    1.000
    N405     N        0.14395    0.40133    0.06347    1.000
    N406     N        0.02368    0.29577    0.14410    1.000
    N407     N        0.07703    0.33839    0.13651    1.000
    Si408    Si       0.05069    0.36390    0.15956    1.000
    N409     N        0.07958    0.26500    0.13437    1.000
    Si410    Si       0.06073    0.30118    0.11885    1.000
    Si411    Si       0.11962    0.33432    0.14531    1.000
    N412     N        0.13673    0.37378    0.15397    1.000
    N413     N        0.20491    0.34495    0.15197    1.000
    N414     N        0.13675    0.30971    0.11244    1.000
    N415     N        0.01930    0.50230    0.12040    1.000
    N416     N        0.02600    0.38646    0.13183    1.000
    N417     N        0.09172    0.41127    0.11620    1.000
    Si418    Si       0.11154    0.40951    0.15405    1.000
    Si419    Si       0.16473    0.48339    0.12640    1.000
    Si420    Si       0.18830    0.42647    0.13610    1.000
    N421     N        0.20268    0.46869    0.13799    1.000
    N422     N        0.15117    0.44164    0.11789    1.000
    N423     N        0.04015    0.33764    0.19289    1.000
    Si424    Si       0.03439    0.29551    0.18630    1.000
    N425     N        0.06394    0.26722    0.19826    1.000
    N426     N        0.00056    0.28555    0.21137    1.000
    Si427    Si       0.03194    0.36009    0.22859    1.000
    Si428    Si       0.10164    0.26831    0.17060    1.000
    N429     N        0.11661    0.30817    0.17999    1.000
    Si430    Si       0.13881    0.31354    0.21831    1.000
    N431     N        0.17145    0.34084    0.20553    1.000
    Si432    Si       0.20506    0.31589    0.19059    1.000
    N433     N        0.14233    0.27008    0.22919    1.000
    N434     N        0.19739    0.27303    0.17810    1.000
    N435     N        0.22977    0.31047    0.22866    1.000
    Si436    Si       0.17459    0.36947    0.17471    1.000
    Si437    Si       0.99006    0.42700    0.23012    1.000
    Si438    Si       0.00215    0.49821    0.21793    1.000
    Si439    Si       0.09911    0.46988    0.19999    1.000
    Si440    Si       0.09167    0.40059    0.21803    1.000
    N441     N        0.00948    0.39280    0.21445    1.000
    N442     N        0.07662    0.39449    0.17927    1.000
    N443     N        0.07176    0.48754    0.17075    1.000
    N444     N        0.12484    0.43886    0.18276    1.000
    N445     N        0.12154    0.50264    0.22051    1.000
    N446     N        0.18329    0.41109    0.17615    1.000
    Si447    Si       0.23728    0.49091    0.20925    1.000
    Si448    Si       0.23251    0.40587    0.21617    1.000
    Si449    Si       0.16007    0.42496    0.21228    1.000
    N450     N        0.13356    0.39334    0.22768    1.000
    N451     N        0.01135    0.33721    0.25913    1.000
    Si452    Si       0.09263    0.34726    0.27357    1.000
    N453     N        0.07226    0.36983    0.24348    1.000
    N454     N        0.07187    0.31074    0.28331    1.000
    N455     N        0.13175    0.33296    0.25758    1.000
    Si456    Si       0.21658    0.31268    0.26844    1.000
    Si457    Si       0.16444    0.36650    0.24464    1.000
    N458     N        0.19151    0.34537    0.27796    1.000
    N459     N        0.18530    0.28356    0.27616    1.000
    Si460    Si       0.15191    0.25925    0.27044    1.000
    Si461    Si       0.05511    0.46088    0.25840    1.000
    N462     N        0.06967    0.50174    0.26306    1.000
    N463     N        0.01698    0.46093    0.23744    1.000
    N464     N        0.08130    0.43980    0.23198    1.000
    N465     N        0.16763    0.45560    0.24356    1.000
    N466     N        0.19506    0.40099    0.23793    1.000
    Si467    Si       0.18941    0.42874    0.27324    1.000
    Si468    Si       0.16287    0.49576    0.23128    1.000
    N469     N        0.03110    0.34164    0.32634    1.000
    N470     N        0.08927    0.37606    0.30816    1.000
    Si471    Si       0.08482    0.27410    0.30217    1.000
    N472     N        0.06725    0.26912    0.34288    1.000
    Si473    Si       0.06017    0.37131    0.33929    1.000
    N474     N        0.01074    0.27807    0.29326    1.000
    Si475    Si       0.99360    0.35172    0.34508    1.000
    Si476    Si       0.02965    0.31589    0.29199    1.000
    Si477    Si       0.22734    0.28646    0.33320    1.000
    N478     N        0.14600    0.34438    0.32538    1.000
    N479     N        0.12957    0.27627    0.30475    1.000
    Si480    Si       0.19407    0.37651    0.30814    1.000
    Si481    Si       0.15507    0.26786    0.34133    1.000
    N482     N        0.18593    0.29599    0.34451    1.000
    N483     N        0.20314    0.36740    0.34887    1.000
    Si484    Si       0.15666    0.31732    0.29307    1.000
    N485     N        0.05320    0.45282    0.30234    1.000
    Si486    Si       0.07759    0.48515    0.31952    1.000
    Si487    Si       0.02175    0.44314    0.33083    1.000
    N488     N        0.03296    0.40472    0.34631    1.000
    Si489    Si       0.22734    0.44514    0.32807    1.000
    N490     N        0.15978    0.39941    0.29293    1.000
    N491     N        0.22261    0.40736    0.29982    1.000
    N492     N        0.12267    0.47982    0.31162    1.000
    Si493    Si       0.12908    0.38543    0.32225    1.000
    Si494    Si       0.16462    0.49380    0.30424    1.000
    N495     N        0.19214    0.46167    0.30492    1.000
    N496     N        0.08498    0.36600    0.37832    1.000
    N497     N        0.00281    0.36127    0.38786    1.000
    Si498    Si       0.04336    0.27196    0.38253    1.000
    N499     N        0.04933    0.31130    0.39891    1.000
    N500     N        0.00027    0.26656    0.39140    1.000
    N501     N        0.15210    0.34444    0.39537    1.000
    N502     N        0.12680    0.27333    0.37555    1.000
    Si503    Si       0.17368    0.33603    0.35801    1.000
    Si504    Si       0.23526    0.37970    0.37346    1.000
    Si505    Si       0.21406    0.27230    0.40547    1.000
    Si506    Si       0.14106    0.30062    0.40944    1.000
    Si507    Si       0.05893    0.47081    0.39630    1.000
    Si508    Si       0.01465    0.40340    0.38633    1.000
    N509     N        0.08554    0.47097    0.36109    1.000
    N510     N        0.01788    0.46985    0.36367    1.000
    N511     N        0.16129    0.47154    0.37510    1.000
    N512     N        0.15998    0.40812    0.40404    1.000
    Si513    Si       0.11947    0.39070    0.39176    1.000
    Si514    Si       0.12732    0.45762    0.35195    1.000
    N515     N        0.23065    0.48547    0.35459    1.000
    N516     N        0.12446    0.41548    0.35228    1.000
    Si517    Si       0.19136    0.50165    0.36744    1.000
    N518     N        0.04650    0.35326    0.44522    1.000
    Si519    Si       0.01534    0.33279    0.41700    1.000
    Si520    Si       0.07783    0.33970    0.41500    1.000
    N521     N        0.10765    0.31253    0.43442    1.000
    N522     N        0.02946    0.25947    0.45527    1.000
    N523     N        0.17802    0.28739    0.42324    1.000
    Si524    Si       0.17823    0.37121    0.42034    1.000
    N525     N        0.16505    0.37746    0.46248    1.000
    N526     N        0.22118    0.37271    0.41403    1.000
    Si527    Si       0.18559    0.26936    0.46543    1.000
    N528     N        0.23796    0.26648    0.44345    1.000
    Si529    Si       0.07081    0.42756    0.44188    1.000
    N530     N        0.08319    0.47053    0.43247    1.000
    N531     N        0.10309    0.39957    0.43097    1.000
    N532     N        0.04369    0.43009    0.40802    1.000
    N533     N        0.14484    0.45174    0.45387    1.000
    N534     N        0.20284    0.46240    0.43167    1.000
    Si535    Si       0.11476    0.48429    0.45885    1.000
    Si536    Si       0.16631    0.44943    0.41325    1.000
    Si537    Si       0.13429    0.40883    0.46210    1.000
    Si538    Si       0.03825    0.27935    0.49295    1.000
    N539     N        0.07756    0.29691    0.49374    1.000
    N540     N        0.99911    0.37127    0.49569    1.000
    N541     N        0.00717    0.30406    0.51288    1.000
    Si542    Si       0.04217    0.37289    0.48461    1.000
    N543     N        0.06730    0.36237    0.51845    1.000
    Si544    Si       0.11176    0.28721    0.46999    1.000
    N545     N        0.15196    0.29254    0.48445    1.000
    Si546    Si       0.15927    0.31638    0.52382    1.000
    Si547    Si       0.19466    0.38027    0.49433    1.000
    N548     N        0.18765    0.35003    0.52419    1.000
    N549     N        0.04865    0.41549    0.47596    1.000
    N550     N        0.02395    0.47995    0.49308    1.000
    Si551    Si       0.01787    0.43671    0.49979    1.000
    N552     N        0.09726    0.47550    0.49811    1.000
    Si553    Si       0.06011    0.48932    0.51488    1.000
    N554     N        0.23562    0.38494    0.47937    1.000
    N555     N        0.11533    0.41125    0.50215    1.000
    Si556    Si       0.22076    0.49514    0.50989    1.000
    Si557    Si       0.18331    0.45749    0.47551    1.000
    N558     N        0.23331    0.46270    0.48383    1.000
    N559     N        0.18098    0.49753    0.49650    1.000
    N560     N        0.18927    0.42331    0.50453    1.000
    N561     N        0.07448    0.29990    0.56617    1.000
    N562     N        0.01220    0.28485    0.57818    1.000
    Si563    Si       0.08357    0.32082    0.52839    1.000
    Si564    Si       0.04780    0.26179    0.56198    1.000
    Si565    Si       0.10663    0.38047    0.53109    1.000
    N566     N        0.16175    0.28091    0.54905    1.000
    Si567    Si       0.19528    0.36452    0.56747    1.000
    N568     N        0.12282    0.34039    0.53211    1.000
    N569     N        0.23725    0.36080    0.58081    1.000
    Si570    Si       0.03207    0.43528    0.57075    1.000
    N571     N        0.06294    0.45657    0.54460    1.000
    N572     N        0.00518    0.42269    0.53940    1.000
    Si573    Si       0.10405    0.44474    0.53030    1.000
    N574     N        0.11158    0.40673    0.56507    1.000
    Si575    Si       0.14571    0.43185    0.57961    1.000
    N576     N        0.13695    0.46467    0.55181    1.000
    Si577    Si       0.20274    0.43431    0.54538    1.000
    N578     N        0.21598    0.47501    0.55006    1.000
    Si579    Si       0.14347    0.50617    0.56907    1.000
    N580     N        0.18024    0.40811    0.57136    1.000
    N581     N        0.03844    0.33281    0.61727    1.000
    Si582    Si       0.01196    0.29808    0.61832    1.000
    N583     N        0.10471    0.35602    0.60725    1.000
    Si584    Si       0.02763    0.37527    0.62384    1.000
    Si585    Si       0.07876    0.32141    0.60765    1.000
    N586     N        0.15392    0.27241    0.61736    1.000
    Si587    Si       0.14742    0.35272    0.62351    1.000
    N588     N        0.17259    0.33507    0.59202    1.000
    Si589    Si       0.17988    0.29188    0.58733    1.000
    N590     N        0.21947    0.27338    0.58852    1.000
    N591     N        0.09367    0.42532    0.63058    1.000
    N592     N        0.01089    0.45898    0.59983    1.000
    Si593    Si       0.08733    0.39600    0.60047    1.000
    N594     N        0.04541    0.39910    0.59205    1.000
    N595     N        0.16089    0.39132    0.64034    1.000
    Si596    Si       0.22187    0.49891    0.58549    1.000
    N597     N        0.23270    0.39637    0.63729    1.000
    N598     N        0.15404    0.45259    0.61526    1.000
    N599     N        0.22279    0.47456    0.62061    1.000
    Si600    Si       0.18349    0.47029    0.64083    1.000
    Si601    Si       0.05674    0.29174    0.67234    1.000
    N602     N        0.03266    0.31734    0.69535    1.000
    Si603    Si       0.03375    0.36214    0.69818    1.000
    N604     N        0.99178    0.37699    0.69761    1.000
    N605     N        0.02957    0.27041    0.64504    1.000
    N606     N        0.04615    0.38417    0.66235    1.000
    N607     N        0.08989    0.29691    0.64440    1.000
    N608     N        0.14753    0.25829    0.67760    1.000
    Si609    Si       0.13219    0.29044    0.65312    1.000
    N610     N        0.15276    0.32761    0.66044    1.000
    N611     N        0.20378    0.36804    0.69300    1.000
    Si612    Si       0.17032    0.34042    0.69719    1.000
    N613     N        0.21579    0.25897    0.65478    1.000
    N614     N        0.99067    0.43660    0.66630    1.000
    N615     N        0.09452    0.49887    0.66260    1.000
    N616     N        0.05415    0.45129    0.69145    1.000
    Si617    Si       0.07208    0.41979    0.66663    1.000
    Si618    Si       0.07333    0.49127    0.69880    1.000
    N619     N        0.11024    0.40425    0.68475    1.000
    Si620    Si       0.01193    0.45478    0.70171    1.000
    Si621    Si       0.13608    0.50126    0.67437    1.000
    N622     N        0.20237    0.44051    0.66754    1.000
    Si623    Si       0.13397    0.42611    0.65127    1.000
    N624     N        0.14468    0.46000    0.67751    1.000
    Si625    Si       0.19765    0.39668    0.66189    1.000
    N626     N        0.04149    0.36825    0.74120    1.000
    Si627    Si       0.00222    0.29530    0.72050    1.000
    N628     N        0.02096    0.27441    0.75329    1.000
    N629     N        0.14218    0.35501    0.72738    1.000
    N630     N        0.19023    0.30544    0.71490    1.000
    Si631    Si       0.23038    0.30343    0.73005    1.000
    Si632    Si       0.23225    0.37581    0.72306    1.000
    Si633    Si       0.17389    0.28627    0.75279    1.000
    N634     N        0.01298    0.49713    0.71119    1.000
    N635     N        0.09546    0.48251    0.73683    1.000
    N636     N        0.10031    0.41068    0.75204    1.000
    N637     N        0.99273    0.43604    0.73434    1.000
    Si638    Si       0.13030    0.39620    0.72146    1.000
    Si639    Si       0.17904    0.45051    0.70219    1.000
    N640     N        0.16847    0.41596    0.72433    1.000
    N641     N        0.18733    0.48645    0.72823    1.000
    N642     N        0.21972    0.39559    0.75943    1.000
    Si643    Si       0.01063    0.28890    0.79372    1.000
    N644     N        0.09457    0.35088    0.78442    1.000
    N645     N        0.03289    0.32494    0.79583    1.000
    Si646    Si       0.01214    0.35017    0.76950    1.000
    Si647    Si       0.07018    0.33305    0.81707    1.000
    N648     N        0.08823    0.26365    0.76471    1.000
    Si649    Si       0.11466    0.27719    0.79451    1.000
    N650     N        0.14468    0.30457    0.77911    1.000
    Si651    Si       0.13551    0.34772    0.77195    1.000
    N652     N        0.21475    0.28690    0.76676    1.000
    N653     N        0.16062    0.37929    0.79069    1.000
    Si654    Si       0.06988    0.38385    0.77005    1.000
    Si655    Si       0.00986    0.41199    0.81113    1.000
    N656     N        0.04923    0.39773    0.80661    1.000
    N657     N        0.08337    0.45950    0.79854    1.000
    N658     N        0.00816    0.45631    0.80560    1.000
    Si659    Si       0.04610    0.47928    0.80893    1.000
    Si660    Si       0.10784    0.45147    0.76571    1.000
    N661     N        0.99116    0.38666    0.77957    1.000
    Si662    Si       0.17098    0.48666    0.76907    1.000
    N663     N        0.21028    0.49732    0.78543    1.000
    Si664    Si       0.17906    0.41265    0.76703    1.000
    N665     N        0.15201    0.44909    0.77467    1.000
    N666     N        0.23736    0.44116    0.80686    1.000
    N667     N        0.07069    0.35549    0.85305    1.000
    Si668    Si       0.05990    0.27195    0.85156    1.000
    N669     N        0.02353    0.26603    0.82972    1.000
    N670     N        0.08967    0.29479    0.82620    1.000
    N671     N        0.18253    0.36058    0.85672    1.000
    Si672    Si       0.22516    0.36905    0.85457    1.000
    Si673    Si       0.20913    0.26723    0.85050    1.000
    N674     N        0.17023    0.28714    0.86645    1.000
    N675     N        0.23459    0.29775    0.83307    1.000
    N676     N        0.04216    0.50007    0.84484    1.000
    Si677    Si       0.07629    0.39799    0.84216    1.000
    N678     N        0.05791    0.42838    0.86949    1.000
    Si679    Si       0.00426    0.49417    0.86730    1.000
    N680     N        0.99333    0.40647    0.85127    1.000
    N681     N        0.23154    0.40829    0.86741    1.000
    Si682    Si       0.13816    0.44983    0.84377    1.000
    N683     N        0.22791    0.48131    0.86401    1.000
    N684     N        0.14476    0.48973    0.83121    1.000
    N685     N        0.17781    0.43117    0.83858    1.000
    Si686    Si       0.21772    0.44512    0.84531    1.000
    Si687    Si       0.15987    0.39174    0.83376    1.000
    N688     N        0.11823    0.40752    0.83752    1.000
    Si689    Si       0.04082    0.27746    0.92314    1.000
    Si690    Si       0.07734    0.33476    0.88983    1.000
    N691     N        0.07911    0.35437    0.92852    1.000
    N692     N        0.00370    0.29401    0.92942    1.000
    N693     N        0.05912    0.29690    0.88888    1.000
    N694     N        0.17019    0.33434    0.92463    1.000
    N695     N        0.12131    0.33373    0.88780    1.000
    N696     N        0.16020    0.26215    0.93520    1.000
    Si697    Si       0.16350    0.32836    0.88072    1.000
    Si698    Si       0.12502    0.34753    0.93198    1.000
    N699     N        0.99969    0.46069    0.89410    1.000
    N700     N        0.06999    0.48930    0.91359    1.000
    Si701    Si       0.07958    0.45165    0.90087    1.000
    N702     N        0.01788    0.39700    0.91883    1.000
    Si703    Si       0.01828    0.42171    0.88385    1.000
    N704     N        0.07727    0.42370    0.93463    1.000
    N705     N        0.12131    0.45509    0.88515    1.000
    Si706    Si       0.13829    0.48078    0.91438    1.000
    N707     N        0.18308    0.48301    0.92045    1.000
    Si708    Si       0.10212    0.28188    0.97970    1.000
    N709     N        0.06796    0.27161    0.95584    1.000
    N710     N        0.12665    0.31588    0.96752    1.000
    N711     N        0.20437    0.29485    0.97380    1.000
    N712     N        0.22123    0.36991    0.97954    1.000
    Si713    Si       0.16840    0.30103    0.95253    1.000
    Si714    Si       0.23196    0.32853    0.97807    1.000
    N715     N        0.04051    0.39006    0.98358    1.000
    Si716    Si       0.05357    0.38856    0.94221    1.000
    Si717    Si       0.11248    0.42209    0.96130    1.000
    Si718    Si       0.23085    0.40627    0.95691    1.000
    N719     N        0.19682    0.47995    0.99087    1.000
    N720     N        0.19058    0.41894    0.95001    1.000
    Si721    Si       0.17764    0.46020    0.95812    1.000
    N722     N        0.13301    0.45882    0.95225    1.000
    N723     N        0.13592    0.38211    0.95576    1.000
    Si724    Si       0.17463    0.38788    0.97954    1.000
    N725     N        0.05936    0.55507    0.01417    1.000
    Si726    Si       0.09849    0.56178    0.03067    1.000
    Si727    Si       0.03066    0.53824    0.04480    1.000
    N728     N        0.99086    0.53160    0.02633    1.000
    N729     N        0.04458    0.63147    0.03519    1.000
    N730     N        0.99109    0.59435    0.01073    1.000
    Si731    Si       0.16001    0.59600    0.02102    1.000
    N732     N        0.22784    0.52469    0.04105    1.000
    N733     N        0.12299    0.58392    0.00269    1.000
    N734     N        0.15764    0.62875    0.05154    1.000
    N735     N        0.16977    0.56366    0.04607    1.000
    Si736    Si       0.22289    0.51630    0.99899    1.000
    Si737    Si       0.10014    0.75654    0.01093    1.000
    N738     N        0.03012    0.69653    0.03005    1.000
    N739     N        0.10027    0.67260    0.01700    1.000
    Si740    Si       0.06338    0.66994    0.03928    1.000
    Si741    Si       0.04104    0.73485    0.04999    1.000
    N742     N        0.08285    0.74226    0.04806    1.000
    Si743    Si       0.99151    0.68268    0.01811    1.000
    N744     N        0.17906    0.68155    0.01407    1.000
    Si745    Si       0.20378    0.70214    0.04504    1.000
    Si746    Si       0.20829    0.64926    0.00138    1.000
    N747     N        0.19252    0.74381    0.04960    1.000
    N748     N        0.22687    0.64639    0.04174    1.000
    N749     N        0.14211    0.74317    0.00189    1.000
    Si750    Si       0.14035    0.66759    0.03551    1.000
    N751     N        0.03413    0.56894    0.07727    1.000
    Si752    Si       0.05698    0.60413    0.06589    1.000
    N753     N        0.05164    0.62129    0.10535    1.000
    N754     N        0.09977    0.59555    0.06111    1.000
    Si755    Si       0.13461    0.60910    0.08547    1.000
    Si756    Si       0.14913    0.53969    0.07418    1.000
    N757     N        0.14230    0.56939    0.10667    1.000
    N758     N        0.21097    0.62701    0.11163    1.000
    N759     N        0.11270    0.52609    0.05109    1.000
    N760     N        0.99971    0.67458    0.10096    1.000
    N761     N        0.06978    0.68187    0.07929    1.000
    N762     N        0.02779    0.73705    0.09146    1.000
    Si763    Si       0.09797    0.71493    0.07981    1.000
    Si764    Si       0.04238    0.66444    0.10843    1.000
    Si765    Si       0.99058    0.71576    0.10214    1.000
    N766     N        0.19429    0.68362    0.08422    1.000
    N767     N        0.13569    0.69558    0.06769    1.000
    Si768    Si       0.14921    0.68573    0.10717    1.000
    Si769    Si       0.19543    0.64134    0.07363    1.000
    N770     N        0.13671    0.64346    0.11147    1.000
    N771     N        0.06139    0.55552    0.14201    1.000
    N772     N        0.00367    0.59943    0.14283    1.000
    Si773    Si       0.03657    0.58252    0.11850    1.000
    Si774    Si       0.05966    0.51041    0.13722    1.000
    Si775    Si       0.15000    0.55654    0.14719    1.000
    Si776    Si       0.20066    0.61045    0.15259    1.000
    N777     N        0.19025    0.56823    0.15891    1.000
    N778     N        0.14568    0.51344    0.15058    1.000
    N779     N        0.05031    0.68030    0.14830    1.000
    Si780    Si       0.08796    0.70209    0.15576    1.000
    N781     N        0.08223    0.74297    0.17050    1.000
    N782     N        0.11028    0.71866    0.12034    1.000
    Si783    Si       0.11399    0.75803    0.14084    1.000
    Si784    Si       0.20828    0.69860    0.12253    1.000
    N785     N        0.16961    0.69465    0.14467    1.000
    Si786    Si       0.23122    0.75584    0.15206    1.000
    N787     N        0.14671    0.75853    0.16941    1.000
    N788     N        0.21271    0.74121    0.11638    1.000
    N789     N        0.06958    0.55504    0.21313    1.000
    Si790    Si       0.02675    0.55552    0.21584    1.000
    N791     N        0.01129    0.52653    0.18557    1.000
    N792     N        0.00521    0.59278    0.21712    1.000
    Si793    Si       0.01752    0.61535    0.18070    1.000
    N794     N        0.06081    0.61448    0.18296    1.000
    Si795    Si       0.07998    0.57564    0.17659    1.000
    N796     N        0.11648    0.62571    0.22321    1.000
    Si797    Si       0.14636    0.60072    0.20243    1.000
    Si798    Si       0.19984    0.55281    0.19806    1.000
    N799     N        0.17134    0.57415    0.22618    1.000
    N800     N        0.19804    0.50882    0.20792    1.000
    N801     N        0.16922    0.62871    0.17795    1.000
    N802     N        0.12292    0.57708    0.17476    1.000
    N803     N        0.05492    0.67377    0.21781    1.000
    Si804    Si       0.08545    0.64498    0.20030    1.000
    N805     N        0.99604    0.65619    0.18700    1.000
    Si806    Si       0.02686    0.68538    0.18585    1.000
    N807     N        0.01520    0.72532    0.18767    1.000
    N808     N        0.10949    0.66879    0.17241    1.000
    Si809    Si       0.04121    0.75871    0.18035    1.000
    N810     N        0.16183    0.69506    0.20713    1.000
    Si811    Si       0.17244    0.72520    0.17636    1.000
    N812     N        0.21428    0.73011    0.18441    1.000
    Si813    Si       0.15204    0.66767    0.17555    1.000
    N814     N        0.01447    0.53292    0.24976    1.000
    N815     N        0.00014    0.62572    0.27875    1.000
    Si816    Si       0.09535    0.53079    0.24286    1.000
    Si817    Si       0.04132    0.53080    0.28323    1.000
    N818     N        0.11455    0.55885    0.26894    1.000
    Si819    Si       0.15847    0.56093    0.26587    1.000
    N820     N        0.16581    0.51818    0.26909    1.000
    N821     N        0.10745    0.75780    0.23753    1.000
    Si822    Si       0.06172    0.69164    0.25740    1.000
    N823     N        0.04368    0.73172    0.26216    1.000
    N824     N        0.10559    0.68726    0.26061    1.000
    Si825    Si       0.00353    0.73763    0.28024    1.000
    Si826    Si       0.12391    0.64583    0.26144    1.000
    Si827    Si       0.12151    0.72731    0.26456    1.000
    N828     N        0.16643    0.72700    0.26603    1.000
    N829     N        0.16594    0.64998    0.26540    1.000
    N830     N        0.22029    0.68693    0.24577    1.000
    Si831    Si       0.17731    0.69046    0.24655    1.000
    Si832    Si       0.02263    0.59986    0.30731    1.000
    N833     N        0.04434    0.62379    0.33634    1.000
    Si834    Si       0.09440    0.58422    0.29920    1.000
    N835     N        0.04862    0.51617    0.32409    1.000
    N836     N        0.05185    0.57379    0.28990    1.000
    N837     N        0.11419    0.57578    0.33765    1.000
    N838     N        0.98727    0.58583    0.32858    1.000
    N839     N        0.09970    0.62750    0.29289    1.000
    Si840    Si       0.15698    0.56639    0.33474    1.000
    N841     N        0.16820    0.52523    0.33534    1.000
    N842     N        0.17131    0.58644    0.29925    1.000
    Si843    Si       0.18869    0.62783    0.29325    1.000
    N844     N        0.09033    0.68192    0.34399    1.000
    Si845    Si       0.09681    0.72453    0.34104    1.000
    Si846    Si       0.07259    0.65252    0.31822    1.000
    N847     N        0.10761    0.74198    0.30342    1.000
    Si848    Si       0.00208    0.66402    0.29661    1.000
    N849     N        0.04513    0.67272    0.29095    1.000
    N850     N        0.23224    0.64036    0.29983    1.000
    N851     N        0.17795    0.64221    0.33436    1.000
    Si852    Si       0.22032    0.64461    0.34475    1.000
    Si853    Si       0.03994    0.62149    0.37908    1.000
    N854     N        0.06219    0.58585    0.39153    1.000
    N855     N        0.99810    0.61781    0.38755    1.000
    Si856    Si       0.10427    0.58738    0.37845    1.000
    N857     N        0.04797    0.51645    0.39649    1.000
    Si858    Si       0.02511    0.51239    0.35949    1.000
    N859     N        0.12068    0.63038    0.38204    1.000
    N860     N        0.17292    0.58615    0.37001    1.000
    N861     N        0.19352    0.52989    0.39958    1.000
    Si862    Si       0.16270    0.62821    0.37362    1.000
    N863     N        0.00360    0.71742    0.38243    1.000
    Si864    Si       0.09784    0.66712    0.38546    1.000
    N865     N        0.05828    0.65659    0.40175    1.000
    Si866    Si       0.02023    0.75190    0.36001    1.000
    N867     N        0.06229    0.74877    0.35425    1.000
    Si868    Si       0.21477    0.68594    0.40020    1.000
    N869     N        0.22975    0.68329    0.35994    1.000
    N870     N        0.18392    0.71578    0.40707    1.000
    Si871    Si       0.14082    0.72609    0.40261    1.000
    N872     N        0.12541    0.74367    0.36741    1.000
    N873     N        0.19753    0.64534    0.39803    1.000
    N874     N        0.00237    0.56209    0.42547    1.000
    Si875    Si       0.04492    0.55505    0.41519    1.000
    N876     N        0.06378    0.55750    0.45435    1.000
    Si877    Si       0.10716    0.56110    0.44980    1.000
    Si878    Si       0.98955    0.60389    0.42755    1.000
    N879     N        0.01065    0.63219    0.45070    1.000
    N880     N        0.17504    0.59479    0.43750    1.000
    Si881    Si       0.21109    0.61684    0.42835    1.000
    N882     N        0.12684    0.52466    0.46332    1.000
    Si883    Si       0.23384    0.53889    0.41637    1.000
    N884     N        0.23569    0.58246    0.41811    1.000
    Si885    Si       0.16681    0.56422    0.40801    1.000
    N886     N        0.12269    0.56255    0.40869    1.000
    N887     N        0.01428    0.69740    0.45028    1.000
    Si888    Si       0.04238    0.66193    0.44096    1.000
    Si889    Si       0.10320    0.68869    0.45674    1.000
    N890     N        0.07620    0.72390    0.46315    1.000
    Si891    Si       0.03590    0.73263    0.46856    1.000
    N892     N        0.23179    0.64490    0.45320    1.000
    N893     N        0.14482    0.75729    0.43479    1.000
    N894     N        0.11638    0.69338    0.41646    1.000
    Si895    Si       0.19120    0.75169    0.43026    1.000
    Si896    Si       0.09124    0.62497    0.49326    1.000
    N897     N        0.05843    0.60151    0.51033    1.000
    N898     N        0.00194    0.57132    0.49593    1.000
    Si899    Si       0.04568    0.56200    0.49480    1.000
    Si900    Si       0.99743    0.60875    0.51811    1.000
    N901     N        0.06518    0.53282    0.52325    1.000
    N902     N        0.11762    0.59743    0.47402    1.000
    Si903    Si       0.15424    0.53058    0.49758    1.000
    N904     N        0.17550    0.56852    0.50126    1.000
    Si905    Si       0.16082    0.59858    0.47615    1.000
    Si906    Si       0.21159    0.56824    0.52293    1.000
    N907     N        0.23714    0.53499    0.51111    1.000
    N908     N        0.02772    0.74899    0.50882    1.000
    N909     N        0.00631    0.65158    0.51311    1.000
    Si910    Si       0.99091    0.66393    0.47447    1.000
    N911     N        0.07568    0.65643    0.46564    1.000
    Si912    Si       0.21973    0.63252    0.49443    1.000
    N913     N        0.24007    0.66169    0.52292    1.000
    Si914    Si       0.15287    0.66641    0.50911    1.000
    N915     N        0.17637    0.63629    0.49198    1.000
    N916     N        0.11449    0.64801    0.52357    1.000
    Si917    Si       0.14586    0.73723    0.47418    1.000
    Si918    Si       0.21489    0.75476    0.50681    1.000
    N919     N        0.13992    0.69585    0.48025    1.000
    N920     N        0.19117    0.74162    0.47317    1.000
    N921     N        0.00997    0.59656    0.55771    1.000
    Si922    Si       0.09445    0.54185    0.55541    1.000
    Si923    Si       0.05248    0.60427    0.55276    1.000
    N924     N        0.08459    0.58282    0.57243    1.000
    N925     N        0.21812    0.57164    0.56474    1.000
    N926     N        0.13162    0.53384    0.53559    1.000
    Si927    Si       0.02949    0.67320    0.54115    1.000
    N928     N        0.05379    0.64529    0.56676    1.000
    Si929    Si       0.08974    0.66814    0.55069    1.000
    Si930    Si       0.03939    0.73305    0.54860    1.000
    N931     N        0.00790    0.70514    0.55702    1.000
    N932     N        0.06519    0.69912    0.53490    1.000
    N933     N        0.22057    0.73200    0.54548    1.000
    N934     N        0.17415    0.67947    0.54554    1.000
    Si935    Si       0.19094    0.75507    0.56993    1.000
    Si936    Si       0.15317    0.68955    0.58264    1.000
    Si937    Si       0.21648    0.68783    0.55032    1.000
    N938     N        0.04223    0.60202    0.62047    1.000
    Si939    Si       0.02120    0.56628    0.62970    1.000
    Si940    Si       0.08663    0.52313    0.62802    1.000
    N941     N        0.04603    0.53374    0.61842    1.000
    Si942    Si       0.08576    0.59302    0.61495    1.000
    N943     N        0.10922    0.62959    0.61834    1.000
    N944     N        0.10490    0.51690    0.59033    1.000
    N945     N        0.16320    0.58723    0.60857    1.000
    Si946    Si       0.15195    0.62410    0.62617    1.000
    Si947    Si       0.19462    0.56024    0.59976    1.000
    N948     N        0.21841    0.56432    0.63535    1.000
    N949     N        0.18213    0.51815    0.58481    1.000
    Si950    Si       0.05462    0.75933    0.62482    1.000
    Si951    Si       0.03384    0.64421    0.60742    1.000
    Si952    Si       0.10056    0.67201    0.62113    1.000
    N953     N        0.05774    0.67174    0.62855    1.000
    N954     N        0.99215    0.65656    0.60690    1.000
    N955     N        0.04180    0.75770    0.58268    1.000
    N956     N        0.11158    0.68720    0.58129    1.000
    N957     N        0.16966    0.66066    0.61108    1.000
    N958     N        0.23359    0.67956    0.59142    1.000
    N959     N        0.18115    0.72018    0.59676    1.000
    Si960    Si       0.20095    0.68989    0.61924    1.000
    N961     N        0.00946    0.55617    0.67338    1.000
    Si962    Si       0.10128    0.56007    0.68763    1.000
    N963     N        0.09669    0.56472    0.64507    1.000
    N964     N        0.06801    0.53713    0.70307    1.000
    N965     N        0.18411    0.57519    0.69534    1.000
    Si966    Si       0.20117    0.54497    0.67058    1.000
    N967     N        0.23401    0.52809    0.69478    1.000
    N968     N        0.15724    0.63287    0.66808    1.000
    N969     N        0.17471    0.51214    0.65712    1.000
    Si970    Si       0.04163    0.69228    0.66227    1.000
    N971     N        0.00828    0.66616    0.67601    1.000
    N972     N        0.03118    0.73320    0.65426    1.000
    N973     N        0.07075    0.70094    0.69572    1.000
    Si974    Si       0.00319    0.75270    0.68165    1.000
    Si975    Si       0.11211    0.71201    0.69087    1.000
    Si976    Si       0.23358    0.70743    0.67901    1.000
    N977     N        0.12680    0.75336    0.69774    1.000
    Si978    Si       0.15907    0.67761    0.66842    1.000
    N979     N        0.19803    0.69349    0.66048    1.000
    N980     N        0.12211    0.69464    0.65195    1.000
    N981     N        0.23611    0.74755    0.69329    1.000
    Si982    Si       0.08470    0.59953    0.74013    1.000
    N983     N        0.01038    0.55594    0.74314    1.000
    N984     N        0.04987    0.60304    0.71274    1.000
    Si985    Si       0.01048    0.51396    0.75269    1.000
    Si986    Si       0.03439    0.56192    0.70740    1.000
    Si987    Si       0.11199    0.52306    0.74202    1.000
    N988     N        0.11543    0.59505    0.70884    1.000
    N989     N        0.09059    0.55842    0.75849    1.000
    Si990    Si       0.22182    0.51393    0.73632    1.000
    Si991    Si       0.20925    0.58874    0.72911    1.000
    N992     N        0.17618    0.61509    0.74185    1.000
    N993     N        0.22080    0.55514    0.75597    1.000
    N994     N        0.12960    0.53080    0.70383    1.000
    Si995    Si       0.15508    0.60648    0.70227    1.000
    Si996    Si       0.04403    0.70646    0.73107    1.000
    N997     N        0.01200    0.73621    0.72080    1.000
    Si998    Si       0.02045    0.63723    0.70960    1.000
    N999     N        0.03223    0.66564    0.74011    1.000
    N1000    N        0.05856    0.73376    0.76020    1.000
    Si1001   Si       0.22625    0.75107    0.73568    1.000
    N1002    N        0.14641    0.68982    0.70872    1.000
    Si1003   Si       0.16395    0.70596    0.74578    1.000
    N1004    N        0.18309    0.74237    0.73672    1.000
    Si1005   Si       0.06816    0.54609    0.79529    1.000
    N1006    N        0.00813    0.61423    0.78280    1.000
    N1007    N        0.07899    0.62600    0.77398    1.000
    N1008    N        0.04453    0.51080    0.78012    1.000
    Si1009   Si       0.10778    0.63191    0.80668    1.000
    Si1010   Si       0.20822    0.54006    0.79676    1.000
    N1011    N        0.15006    0.61983    0.80934    1.000
    N1012    N        0.14286    0.51834    0.77378    1.000
    Si1013   Si       0.14152    0.52987    0.81501    1.000
    N1014    N        0.17532    0.55462    0.81722    1.000
    N1015    N        0.21770    0.62786    0.79529    1.000
    Si1016   Si       0.17906    0.63466    0.77968    1.000
    N1017    N        0.99612    0.73219    0.78960    1.000
    N1018    N        0.04321    0.68282    0.80567    1.000
    Si1019   Si       0.04031    0.64722    0.78124    1.000
    Si1020   Si       0.09402    0.74965    0.77399    1.000
    N1021    N        0.11146    0.67631    0.81103    1.000
    N1022    N        0.09227    0.73952    0.81750    1.000
    Si1023   Si       0.01671    0.75353    0.76035    1.000
    N1024    N        0.17300    0.67887    0.77924    1.000
    Si1025   Si       0.14363    0.70235    0.80299    1.000
    N1026    N        0.13066    0.72474    0.76819    1.000
    N1027    N        0.09062    0.61681    0.84307    1.000
    Si1028   Si       0.09904    0.57857    0.85556    1.000
    Si1029   Si       0.04165    0.54160    0.85622    1.000
    N1030    N        0.04097    0.56616    0.82139    1.000
    N1031    N        0.00970    0.62967    0.84940    1.000
    Si1032   Si       0.00848    0.59531    0.82126    1.000
    N1033    N        0.10283    0.55007    0.82255    1.000
    N1034    N        0.19752    0.61453    0.86058    1.000
    Si1035   Si       0.16678    0.59214    0.83682    1.000
    N1036    N        0.13994    0.58224    0.87026    1.000
    N1037    N        0.07379    0.68669    0.86679    1.000
    N1038    N        0.02727    0.73247    0.85564    1.000
    Si1039   Si       0.07710    0.70048    0.82474    1.000
    Si1040   Si       0.09081    0.64700    0.87738    1.000
    Si1041   Si       0.01088    0.70901    0.82368    1.000
    Si1042   Si       0.12220    0.75658    0.84378    1.000
    N1043    N        0.15575    0.72676    0.83802    1.000
    Si1044   Si       0.19734    0.71732    0.84748    1.000
    N1045    N        0.20051    0.67569    0.84962    1.000
    Si1046   Si       0.22266    0.64086    0.83673    1.000
    N1047    N        0.21889    0.74303    0.81932    1.000
    Si1048   Si       0.17663    0.64947    0.87785    1.000
    Si1049   Si       0.08635    0.52963    0.91386    1.000
    N1050    N        0.99697    0.60132    0.90612    1.000
    Si1051   Si       0.99168    0.55829    0.91674    1.000
    N1052    N        0.07211    0.55409    0.88186    1.000
    N1053    N        0.00469    0.53531    0.88004    1.000
    N1054    N        0.06091    0.63066    0.90447    1.000
    Si1055   Si       0.01952    0.63574    0.89111    1.000
    Si1056   Si       0.21986    0.58401    0.88574    1.000
    N1057    N        0.12824    0.52154    0.90679    1.000
    Si1058   Si       0.15555    0.55375    0.89905    1.000
    N1059    N        0.19657    0.54683    0.88669    1.000
    N1060    N        0.22206    0.60130    0.92582    1.000
    Si1061   Si       0.21036    0.50694    0.89524    1.000
    N1062    N        0.06327    0.74154    0.91156    1.000
    N1063    N        0.01642    0.68158    0.90482    1.000
    Si1064   Si       0.04698    0.70913    0.88944    1.000
    N1065    N        0.13248    0.65505    0.88588    1.000
    N1066    N        0.20608    0.73832    0.88530    1.000
    Si1067   Si       0.14071    0.65578    0.93097    1.000
    N1068    N        0.18324    0.66568    0.91795    1.000
    N1069    N        0.04599    0.60541    0.96847    1.000
    Si1070   Si       0.04886    0.56202    0.97212    1.000
    N1071    N        0.00789    0.55164    0.95704    1.000
    N1072    N        0.08628    0.55806    0.94959    1.000
    Si1073   Si       0.02167    0.62183    0.99981    1.000
    N1074    N        0.11474    0.62375    0.94484    1.000
    Si1075   Si       0.12181    0.58374    0.95914    1.000
    Si1076   Si       0.19782    0.58144    0.95874    1.000
    N1077    N        0.22229    0.54944    0.97306    1.000
    N1078    N        0.15856    0.57429    0.93856    1.000
    N1079    N        0.18830    0.60922    0.99081    1.000
    Si1080   Si       0.07224    0.63073    0.94514    1.000
    N1081    N        0.06107    0.67201    0.95901    1.000
    Si1082   Si       0.05043    0.74901    0.95263    1.000
    N1083    N        0.99933    0.65640    0.98358    1.000
    Si1084   Si       0.01961    0.68248    0.95023    1.000
    N1085    N        0.01503    0.72552    0.96022    1.000
    N1086    N        0.08075    0.73340    0.97929    1.000
    Si1087   Si       0.09372    0.69199    0.97743    1.000
    Si1088   Si       0.99506    0.74853    0.99030    1.000
    N1089    N        0.22783    0.65904    0.96494    1.000
    N1090    N        0.19819    0.72157    0.96138    1.000
    Si1091   Si       0.16267    0.70929    0.98277    1.000
    N1092    N        0.13316    0.68819    0.95903    1.000
    Si1093   Si       0.21833    0.69043    0.93789    1.000
    Si1094   Si       0.00908    0.80133    0.03793    1.000
    N1095    N        0.03358    0.83316    0.02499    1.000
    Si1096   Si       0.03988    0.86886    0.00426    1.000
    N1097    N        0.09587    0.79894    0.00089    1.000
    N1098    N        0.02124    0.76378    0.02260    1.000
    Si1099   Si       0.11143    0.82345    0.03276    1.000
    N1100    N        0.12206    0.86404    0.02564    1.000
    Si1101   Si       0.22388    0.87305    0.04329    1.000
    N1102    N        0.19281    0.85561    0.02216    1.000
    Si1103   Si       0.16934    0.76957    0.02454    1.000
    N1104    N        0.14665    0.79944    0.04728    1.000
    Si1105   Si       0.15806    0.87171    0.00291    1.000
    N1106    N        0.05599    0.88582    0.04667    1.000
    Si1107   Si       0.09591    0.89704    0.03880    1.000
    N1108    N        0.04902    0.95419    0.02617    1.000
    Si1109   Si       0.02612    0.92259    0.04442    1.000
    N1110    N        0.10169    0.92002    0.00009    1.000
    N1111    N        0.01187    0.89949    0.00309    1.000
    Si1112   Si       0.11572    0.00713    0.03481    1.000
    Si1113   Si       0.13501    0.94928    0.99663    1.000
    N1114    N        0.16685    0.91457    0.99782    1.000
    Si1115   Si       0.18182    0.93171    0.03701    1.000
    N1116    N        0.22167    0.91510    0.03325    1.000
    N1117    N        0.15739    0.96828    0.03566    1.000
    N1118    N        0.02270    0.80350    0.07916    1.000
    N1119    N        0.08636    0.82928    0.06787    1.000
    N1120    N        0.03181    0.86097    0.10538    1.000
    Si1121   Si       0.04585    0.84634    0.06873    1.000
    Si1122   Si       0.10269    0.81483    0.10764    1.000
    Si1123   Si       0.04039    0.77441    0.10705    1.000
    N1124    N        0.08276    0.77745    0.11596    1.000
    N1125    N        0.20420    0.80567    0.09047    1.000
    N1126    N        0.15351    0.85444    0.09107    1.000
    Si1127   Si       0.21587    0.76449    0.08001    1.000
    Si1128   Si       0.22595    0.83892    0.10430    1.000
    Si1129   Si       0.16370    0.81472    0.08501    1.000
    N1130    N        0.22197    0.87762    0.08606    1.000
    N1131    N        0.03821    0.93919    0.08493    1.000
    N1132    N        0.09878    0.98427    0.06672    1.000
    Si1133   Si       0.05619    0.97323    0.06731    1.000
    Si1134   Si       0.21734    0.92067    0.09588    1.000
    Si1135   Si       0.14596    0.89605    0.09616    1.000
    Si1136   Si       0.17887    0.00065    0.06184    1.000
    N1137    N        0.11507    0.91688    0.07189    1.000
    N1138    N        0.17682    0.92571    0.07922    1.000
    N1139    N        0.15768    0.98795    0.09854    1.000
    Si1140   Si       0.13323    0.95753    0.07693    1.000
    Si1141   Si       0.05911    0.86541    0.13984    1.000
    N1142    N        0.02416    0.78127    0.14629    1.000
    N1143    N        0.09830    0.84907    0.13275    1.000
    Si1144   Si       0.98941    0.86412    0.11507    1.000
    N1145    N        0.04714    0.84655    0.17486    1.000
    Si1146   Si       0.16787    0.79583    0.15414    1.000
    N1147    N        0.21151    0.79324    0.15886    1.000
    Si1148   Si       0.11645    0.84627    0.17354    1.000
    N1149    N        0.14161    0.79607    0.11783    1.000
    N1150    N        0.99156    0.90591    0.12730    1.000
    N1151    N        0.02380    0.96087    0.15879    1.000
    Si1152   Si       0.02707    0.93000    0.12723    1.000
    Si1153   Si       0.10225    0.91749    0.15655    1.000
    N1154    N        0.06299    0.90938    0.14152    1.000
    N1155    N        0.09558    0.95994    0.16654    1.000
    Si1156   Si       0.16268    0.00802    0.13650    1.000
    N1157    N        0.14067    0.91590    0.13571    1.000
    N1158    N        0.21124    0.91892    0.13908    1.000
    N1159    N        0.16840    0.97539    0.16817    1.000
    Si1160   Si       0.17328    0.93239    0.15711    1.000
    Si1161   Si       0.06476    0.82195    0.20351    1.000
    N1162    N        0.04112    0.78752    0.21404    1.000
    N1163    N        0.10332    0.80834    0.18777    1.000
    Si1164   Si       0.99646    0.79576    0.22287    1.000
    N1165    N        0.99313    0.84033    0.22185    1.000
    Si1166   Si       0.12985    0.77734    0.20590    1.000
    Si1167   Si       0.17418    0.83090    0.21468    1.000
    N1168    N        0.21624    0.84315    0.21014    1.000
    N1169    N        0.16797    0.78952    0.22497    1.000
    Si1170   Si       0.23745    0.82151    0.17710    1.000
    N1171    N        0.15841    0.83319    0.17363    1.000
    Si1172   Si       0.98866    0.96979    0.18065    1.000
    N1173    N        0.10447    0.88620    0.18705    1.000
    Si1174   Si       0.08310    0.88990    0.22345    1.000
    N1175    N        0.06094    0.96491    0.22271    1.000
    Si1176   Si       0.05750    0.97663    0.17897    1.000
    N1177    N        0.04129    0.89920    0.22970    1.000
    N1178    N        0.99318    0.95049    0.22003    1.000
    N1179    N        0.12469    0.98784    0.22122    1.000
    Si1180   Si       0.20809    0.92351    0.22045    1.000
    N1181    N        0.20904    0.96567    0.22676    1.000
    N1182    N        0.17351    0.91544    0.19542    1.000
    Si1183   Si       0.19629    0.99448    0.19724    1.000
    Si1184   Si       0.12709    0.98619    0.17915    1.000
    Si1185   Si       0.07499    0.84001    0.27485    1.000
    Si1186   Si       0.01149    0.86972    0.24863    1.000
    N1187    N        0.03622    0.85555    0.28000    1.000
    N1188    N        0.07544    0.79718    0.27785    1.000
    Si1189   Si       0.06396    0.76833    0.24693    1.000
    N1190    N        0.08341    0.84840    0.23255    1.000
    N1191    N        0.98980    0.77756    0.26229    1.000
    N1192    N        0.15778    0.85562    0.24590    1.000
    Si1193   Si       0.17364    0.76938    0.26233    1.000
    Si1194   Si       0.18217    0.87500    0.27431    1.000
    N1195    N        0.21090    0.78041    0.28693    1.000
    N1196    N        0.03374    0.94763    0.28549    1.000
    N1197    N        0.10139    0.97642    0.28445    1.000
    Si1198   Si       0.10004    0.96050    0.24284    1.000
    N1199    N        0.10447    0.91671    0.25044    1.000
    Si1200   Si       0.03034    0.94046    0.24181    1.000
    N1201    N        0.21681    0.89599    0.25541    1.000
    Si1202   Si       0.02444    0.85949    0.32081    1.000
    N1203    N        0.10563    0.85972    0.29775    1.000
    Si1204   Si       0.09966    0.84944    0.34005    1.000
    N1205    N        0.10101    0.80550    0.34047    1.000
    Si1206   Si       0.10836    0.78583    0.30207    1.000
    N1207    N        0.99642    0.82817    0.32661    1.000
    N1208    N        0.05768    0.85678    0.34646    1.000
    N1209    N        0.00231    0.75672    0.32115    1.000
    Si1210   Si       0.18360    0.80751    0.31188    1.000
    Si1211   Si       0.22658    0.86278    0.33180    1.000
    N1212    N        0.20470    0.84511    0.29672    1.000
    N1213    N        0.14963    0.79122    0.29092    1.000
    N1214    N        0.00366    0.89759    0.33065    1.000
    N1215    N        0.09328    0.92190    0.32209    1.000
    Si1216   Si       0.99790    0.92775    0.29957    1.000
    Si1217   Si       0.07118    0.95667    0.30673    1.000
    N1218    N        0.06986    0.98462    0.34136    1.000
    N1219    N        0.16032    0.90431    0.29893    1.000
    Si1220   Si       0.18020    0.91985    0.33815    1.000
    N1221    N        0.21324    0.94721    0.34442    1.000
    Si1222   Si       0.11795    0.90063    0.29126    1.000
    Si1223   Si       0.12373    0.00805    0.30417    1.000
    N1224    N        0.01790    0.79165    0.38271    1.000
    Si1225   Si       0.09250    0.77646    0.36981    1.000
    N1226    N        0.99591    0.86058    0.38811    1.000
    Si1227   Si       0.99074    0.82112    0.36953    1.000
    N1228    N        0.11964    0.87651    0.36736    1.000
    Si1229   Si       0.18145    0.81806    0.39466    1.000
    N1230    N        0.17904    0.80844    0.35390    1.000
    N1231    N        0.08535    0.93152    0.39109    1.000
    Si1232   Si       0.07823    0.97355    0.38283    1.000
    Si1233   Si       0.11139    0.91730    0.36083    1.000
    N1234    N        0.04463    0.98593    0.40525    1.000
    N1235    N        0.19190    0.88172    0.35438    1.000
    N1236    N        0.11525    0.99371    0.39771    1.000
    Si1237   Si       0.21503    0.88605    0.39164    1.000
    N1238    N        0.14956    0.94142    0.35906    1.000
    N1239    N        0.18676    0.99163    0.39260    1.000
    Si1240   Si       0.14947    0.98376    0.37354    1.000
    Si1241   Si       0.21628    0.95949    0.38575    1.000
    N1242    N        0.03749    0.83377    0.43697    1.000
    Si1243   Si       0.04139    0.79391    0.41971    1.000
    Si1244   Si       0.99740    0.85077    0.43132    1.000
    N1245    N        0.02138    0.76509    0.44380    1.000
    Si1246   Si       0.07130    0.84931    0.45956    1.000
    N1247    N        0.08746    0.87833    0.43136    1.000
    N1248    N        0.08262    0.78484    0.41028    1.000
    N1249    N        0.98813    0.87885    0.46474    1.000
    N1250    N        0.10444    0.82178    0.46270    1.000
    Si1251   Si       0.11980    0.79457    0.43218    1.000
    Si1252   Si       0.18340    0.85981    0.44963    1.000
    N1253    N        0.20557    0.78730    0.41600    1.000
    Si1254   Si       0.23260    0.81740    0.43130    1.000
    N1255    N        0.20627    0.84996    0.41460    1.000
    Si1256   Si       0.12549    0.86650    0.40843    1.000
    N1257    N        0.14086    0.82512    0.40814    1.000
    Si1258   Si       0.01190    0.95857    0.41756    1.000
    Si1259   Si       0.07666    0.91944    0.43279    1.000
    N1260    N        0.03469    0.92590    0.43837    1.000
    N1261    N        0.10132    0.93661    0.46403    1.000
    N1262    N        0.21393    0.92363    0.40958    1.000
    Si1263   Si       0.21216    0.92746    0.45308    1.000
    N1264    N        0.15160    0.88679    0.43704    1.000
    N1265    N        0.06542    0.86726    0.50079    1.000
    N1266    N        0.00638    0.82366    0.50051    1.000
    Si1267   Si       0.99885    0.78125    0.51141    1.000
    Si1268   Si       0.03332    0.84852    0.52491    1.000
    Si1269   Si       0.12854    0.84138    0.49295    1.000
    N1270    N        0.17142    0.83506    0.48372    1.000
    Si1271   Si       0.20663    0.82196    0.50564    1.000
    N1272    N        0.23709    0.81954    0.47455    1.000
    N1273    N        0.12978    0.76004    0.50520    1.000
    N1274    N        0.01596    0.00261    0.47966    1.000
    Si1275   Si       0.02981    0.97902    0.51323    1.000
    Si1276   Si       0.09496    0.96941    0.49704    1.000
    N1277    N        0.02068    0.93760    0.50579    1.000
    Si1278   Si       0.00494    0.91918    0.46960    1.000
    N1279    N        0.08547    0.00281    0.46759    1.000
    Si1280   Si       0.14078    0.91353    0.46977    1.000
    N1281    N        0.21252    0.88676    0.46920    1.000
    Si1282   Si       0.22695    0.88615    0.50949    1.000
    N1283    N        0.12956    0.88517    0.50211    1.000
    N1284    N        0.20022    0.98841    0.50533    1.000
    Si1285   Si       0.16479    0.98201    0.48148    1.000
    N1286    N        0.13511    0.98549    0.51204    1.000
    N1287    N        0.17287    0.94365    0.46480    1.000
    N1288    N        0.04459    0.82231    0.55755    1.000
    Si1289   Si       0.08822    0.83430    0.56101    1.000
    N1290    N        0.08987    0.87645    0.56368    1.000
    N1291    N        0.00227    0.87891    0.53305    1.000
    N1292    N        0.98624    0.78351    0.55209    1.000
    Si1293   Si       0.01675    0.79679    0.57993    1.000
    N1294    N        0.12037    0.82322    0.53193    1.000
    N1295    N        0.21970    0.85041    0.53424    1.000
    N1296    N        0.14671    0.76741    0.57162    1.000
    Si1297   Si       0.14597    0.78882    0.53337    1.000
    Si1298   Si       0.22426    0.85186    0.57820    1.000
    N1299    N        0.18917    0.78590    0.52704    1.000
    N1300    N        0.06680    0.99506    0.52688    1.000
    Si1301   Si       0.07929    0.96499    0.55957    1.000
    N1302    N        0.00103    0.99648    0.54161    1.000
    N1303    N        0.08914    0.93629    0.52842    1.000
    Si1304   Si       0.99026    0.91959    0.53319    1.000
    Si1305   Si       0.09386    0.89339    0.52493    1.000
    Si1306   Si       0.13873    0.00422    0.55065    1.000
    N1307    N        0.21568    0.95895    0.57968    1.000
    Si1308   Si       0.22039    0.96065    0.53451    1.000
    N1309    N        0.11663    0.97805    0.57603    1.000
    N1310    N        0.20731    0.92155    0.52350    1.000
    N1311    N        0.10222    0.81779    0.59932    1.000
    N1312    N        0.06504    0.86639    0.63076    1.000
    Si1313   Si       0.07889    0.82610    0.63539    1.000
    N1314    N        0.04286    0.80050    0.63292    1.000
    N1315    N        0.09693    0.76204    0.63320    1.000
    Si1316   Si       0.12466    0.77996    0.60520    1.000
    N1317    N        0.21202    0.78283    0.59627    1.000
    Si1318   Si       0.19215    0.80947    0.62665    1.000
    N1319    N        0.19169    0.84991    0.60715    1.000
    N1320    N        0.15457    0.79134    0.63611    1.000
    N1321    N        0.12965    0.87348    0.63084    1.000
    Si1322   Si       0.09516    0.88592    0.60539    1.000
    N1323    N        0.08996    0.92918    0.61191    1.000
    N1324    N        0.01830    0.91921    0.62906    1.000
    Si1325   Si       0.05144    0.94930    0.62241    1.000
    N1326    N        0.04824    0.97648    0.58819    1.000
    N1327    N        0.14842    0.91615    0.58848    1.000
    Si1328   Si       0.16812    0.88727    0.61337    1.000
    Si1329   Si       0.19532    0.99267    0.59957    1.000
    Si1330   Si       0.12907    0.94942    0.60490    1.000
    Si1331   Si       0.22772    0.92626    0.60578    1.000
    N1332    N        0.19503    0.91659    0.63431    1.000
    N1333    N        0.16284    0.97446    0.62690    1.000
    N1334    N        0.24328    0.89109    0.58606    1.000
    N1335    N        0.00008    0.85849    0.65894    1.000
    N1336    N        0.00797    0.79552    0.68957    1.000
    N1337    N        0.10436    0.82077    0.67049    1.000
    Si1338   Si       0.00545    0.81629    0.64949    1.000
    Si1339   Si       0.12277    0.78106    0.66540    1.000
    Si1340   Si       0.12632    0.85924    0.67032    1.000
    N1341    N        0.21426    0.80827    0.66316    1.000
    N1342    N        0.16782    0.86597    0.68723    1.000
    Si1343   Si       0.19629    0.83509    0.69607    1.000
    N1344    N        0.10342    0.88591    0.69327    1.000
    Si1345   Si       0.03283    0.88551    0.65315    1.000
    N1346    N        0.04986    0.96807    0.66273    1.000
    N1347    N        0.03702    0.90433    0.69461    1.000
    Si1348   Si       0.07229    0.00385    0.67058    1.000
    Si1349   Si       0.04626    0.94540    0.69976    1.000
    N1350    N        0.11290    0.98944    0.66696    1.000
    Si1351   Si       0.18110    0.94978    0.65885    1.000
    N1352    N        0.15514    0.94019    0.69152    1.000
    N1353    N        0.21457    0.97415    0.67743    1.000
    N1354    N        0.00106    0.85306    0.73303    1.000
    Si1355   Si       0.99505    0.81086    0.72879    1.000
    N1356    N        0.07344    0.87943    0.75241    1.000
    N1357    N        0.11633    0.78565    0.76024    1.000
    Si1358   Si       0.14878    0.77197    0.73085    1.000
    N1359    N        0.17147    0.80855    0.72322    1.000
    N1360    N        0.23074    0.78998    0.75062    1.000
    N1361    N        0.23409    0.84935    0.71121    1.000
    Si1362   Si       0.19503    0.81232    0.75961    1.000
    Si1363   Si       0.03429    0.88234    0.73174    1.000
    Si1364   Si       0.07797    0.98414    0.74721    1.000
    Si1365   Si       0.10046    0.90530    0.73282    1.000
    N1366    N        0.01732    0.96399    0.72606    1.000
    N1367    N        0.08463    0.94664    0.71948    1.000
    Si1368   Si       0.12135    0.96522    0.70160    1.000
    Si1369   Si       0.23031    0.94631    0.70807    1.000
    Si1370   Si       0.16625    0.90282    0.71253    1.000
    N1371    N        0.14083    0.90315    0.74910    1.000
    N1372    N        0.20652    0.91159    0.72311    1.000
    N1373    N        0.12423    0.99068    0.73634    1.000
    Si1374   Si       0.08416    0.86707    0.79234    1.000
    Si1375   Si       0.01806    0.82120    0.80128    1.000
    N1376    N        0.05898    0.83411    0.80934    1.000
    N1377    N        0.99679    0.85628    0.80352    1.000
    N1378    N        0.01386    0.79712    0.76664    1.000
    N1379    N        0.19358    0.85283    0.77462    1.000
    N1380    N        0.12567    0.85226    0.79090    1.000
    N1381    N        0.17297    0.79247    0.79262    1.000
    Si1382   Si       0.13187    0.80836    0.79316    1.000
    Si1383   Si       0.21762    0.85457    0.81045    1.000
    Si1384   Si       0.15879    0.88076    0.78223    1.000
    N1385    N        0.23063    0.81346    0.81844    1.000
    Si1386   Si       0.06556    0.93920    0.81669    1.000
    N1387    N        0.99271    0.97150    0.79194    1.000
    N1388    N        0.05918    0.95664    0.77786    1.000
    Si1389   Si       0.01777    0.94828    0.76546    1.000
    N1390    N        0.00970    0.90616    0.76136    1.000
    N1391    N        0.08780    0.90272    0.81864    1.000
    N1392    N        0.18975    0.98513    0.78645    1.000
    Si1393   Si       0.22165    0.99977    0.76213    1.000
    N1394    N        0.17832    0.91179    0.80456    1.000
    Si1395   Si       0.20091    0.94767    0.80712    1.000
    Si1396   Si       0.07983    0.82100    0.84481    1.000
    Si1397   Si       0.02015    0.77509    0.86530    1.000
    N1398    N        0.09556    0.85600    0.86715    1.000
    N1399    N        0.05732    0.79610    0.87234    1.000
    N1400    N        0.99820    0.79601    0.83198    1.000
    N1401    N        0.11255    0.79716    0.83017    1.000
    N1402    N        0.18410    0.79212    0.86390    1.000
    N1403    N        0.18838    0.85887    0.84238    1.000
    Si1404   Si       0.20002    0.78203    0.82484    1.000
    Si1405   Si       0.19159    0.83219    0.87515    1.000
    N1406    N        0.08049    0.97412    0.84003    1.000
    Si1407   Si       0.10370    0.89708    0.85925    1.000
    Si1408   Si       0.02257    0.97205    0.85990    1.000
    N1409    N        0.03039    0.93272    0.84271    1.000
    Si1410   Si       0.21085    0.95876    0.87624    1.000
    Si1411   Si       0.17227    0.99927    0.82540    1.000
    N1412    N        0.14489    0.90443    0.87021    1.000
    N1413    N        0.21758    0.91614    0.86974    1.000
    Si1414   Si       0.18089    0.90035    0.84697    1.000
    N1415    N        0.18460    0.96227    0.84324    1.000
    Si1416   Si       0.08578    0.85472    0.91004    1.000
    Si1417   Si       0.08626    0.77834    0.90160    1.000
    N1418    N        0.09944    0.81540    0.92764    1.000
    Si1419   Si       0.00317    0.87908    0.91041    1.000
    N1420    N        0.04648    0.87666    0.91112    1.000
    N1421    N        0.99219    0.77814    0.90346    1.000
    N1422    N        0.15828    0.84192    0.90142    1.000
    N1423    N        0.22790    0.84681    0.89538    1.000
    Si1424   Si       0.17008    0.76408    0.89409    1.000
    N1425    N        0.23563    0.77752    0.93249    1.000
    N1426    N        0.16868    0.78152    0.93489    1.000
    N1427    N        0.12529    0.76268    0.88576    1.000
    Si1428   Si       0.14598    0.81851    0.93662    1.000
    Si1429   Si       0.03301    0.99769    0.93062    1.000
    N1430    N        0.00239    0.92235    0.91867    1.000
    N1431    N        0.04574    0.97114    0.89733    1.000
    Si1432   Si       0.04752    0.92605    0.91145    1.000
    Si1433   Si       0.08918    0.96866    0.88189    1.000
    N1434    N        0.08572    0.92545    0.88570    1.000
    N1435    N        0.99003    0.99187    0.93132    1.000
    N1436    N        0.11468    0.88304    0.93012    1.000
    Si1437   Si       0.22488    0.88853    0.90344    1.000
    N1438    N        0.11677    0.99574    0.90254    1.000
    Si1439   Si       0.15294    0.88499    0.90863    1.000
    N1440    N        0.19240    0.97168    0.91386    1.000
    Si1441   Si       0.15314    0.98419    0.92309    1.000
    N1442    N        0.18874    0.89971    0.92780    1.000
    N1443    N        0.06890    0.86092    0.97510    1.000
    N1444    N        0.04107    0.79135    0.95230    1.000
    Si1445   Si       0.07486    0.81660    0.96718    1.000
    Si1446   Si       0.00019    0.80263    0.93894    1.000
    N1447    N        0.15911    0.84037    0.97252    1.000
    Si1448   Si       0.19758    0.82683    0.98901    1.000
    Si1449   Si       0.20086    0.76471    0.95783    1.000
    N1450    N        0.23105    0.83533    0.96571    1.000
    N1451    N        0.19690    0.78496    0.99642    1.000
    N1452    N        0.06210    0.92950    0.95306    1.000
    Si1453   Si       0.09082    0.89779    0.96259    1.000
    Si1454   Si       0.06872    0.95709    0.98747    1.000
    N1455    N        0.05252    0.99390    0.96834    1.000
    N1456    N        0.10709    0.98436    0.99644    1.000
    Si1457   Si       0.18287    0.92786    0.95894    1.000
    Si1458   Si       0.22397    0.97678    0.94324    1.000
    N1459    N        0.14831    0.95240    0.95294    1.000
    N1460    N        0.22134    0.94277    0.97098    1.000
    N1461    N        0.31117    0.09198    0.01931    1.000
    Si1462   Si       0.27806    0.10727    0.04235    1.000
    N1463    N        0.35104    0.04291    0.00619    1.000
    Si1464   Si       0.24824    0.01270    0.00267    1.000
    N1465    N        0.24786    0.11586    0.01224    1.000
    N1466    N        0.29179    0.01119    0.99866    1.000
    Si1467   Si       0.30678    0.05119    0.00077    1.000
    Si1468   Si       0.37583    0.06476    0.03567    1.000
    N1469    N        0.40776    0.08038    0.00575    1.000
    N1470    N        0.46406    0.09247    0.04176    1.000
    Si1471   Si       0.45283    0.06406    0.00998    1.000
    N1472    N        0.44560    0.02140    0.02024    1.000
    Si1473   Si       0.44765    0.13036    0.05654    1.000
    N1474    N        0.35437    0.14255    0.99893    1.000
    Si1475   Si       0.33276    0.24211    0.02562    1.000
    N1476    N        0.32121    0.20187    0.02712    1.000
    Si1477   Si       0.32441    0.17738    0.99195    1.000
    N1478    N        0.42319    0.21904    0.04760    1.000
    Si1479   Si       0.45780    0.24664    0.03921    1.000
    N1480    N        0.48352    0.24686    0.00380    1.000
    Si1481   Si       0.42538    0.18971    0.01668    1.000
    N1482    N        0.41613    0.14855    0.03523    1.000
    N1483    N        0.47733    0.16630    0.05233    1.000
    Si1484   Si       0.37128    0.13950    0.03935    1.000
    N1485    N        0.26579    0.07990    0.07401    1.000
    N1486    N        0.43417    0.11550    0.09633    1.000
    Si1487   Si       0.39185    0.10535    0.10232    1.000
    N1488    N        0.38243    0.03671    0.06780    1.000
    Si1489   Si       0.37340    0.02745    0.11158    1.000
    N1490    N        0.37406    0.10074    0.06148    1.000
    N1491    N        0.27653    0.20717    0.07516    1.000
    Si1492   Si       0.26206    0.24351    0.09319    1.000
    N1493    N        0.35522    0.16697    0.06797    1.000
    Si1494   Si       0.24952    0.17609    0.06072    1.000
    Si1495   Si       0.31269    0.18182    0.06709    1.000
    Si1496   Si       0.35953    0.17266    0.11173    1.000
    N1497    N        0.35427    0.24385    0.06278    1.000
    N1498    N        0.28406    0.14764    0.05627    1.000
    Si1499   Si       0.39200    0.22998    0.07687    1.000
    Si1500   Si       0.48268    0.19531    0.08452    1.000
    N1501    N        0.38989    0.20352    0.11240    1.000
    N1502    N        0.48496    0.23593    0.07060    1.000
    N1503    N        0.26462    0.04936    0.13357    1.000
    Si1504   Si       0.34157    0.07299    0.14683    1.000
    N1505    N        0.31240    0.10217    0.13391    1.000
    N1506    N        0.33337    0.03475    0.12904    1.000
    Si1507   Si       0.29245    0.01744    0.12466    1.000
    Si1508   Si       0.27460    0.08715    0.11579    1.000
    N1509    N        0.24144    0.11159    0.12669    1.000
    N1510    N        0.45403    0.07016    0.14999    1.000
    N1511    N        0.38334    0.07216    0.13156    1.000
    Si1512   Si       0.41423    0.05350    0.15583    1.000
    Si1513   Si       0.46534    0.10468    0.12466    1.000
    N1514    N        0.41129    0.01585    0.13351    1.000
    Si1515   Si       0.31158    0.14291    0.15163    1.000
    N1516    N        0.31564    0.17141    0.12041    1.000
    Si1517   Si       0.42112    0.21141    0.14264    1.000
    Si1518   Si       0.38445    0.14946    0.16923    1.000
    N1519    N        0.45636    0.19744    0.12098    1.000
    N1520    N        0.37870    0.13949    0.12726    1.000
    N1521    N        0.42702    0.25152    0.16059    1.000
    N1522    N        0.46781    0.13795    0.15288    1.000
    Si1523   Si       0.48777    0.17537    0.14314    1.000
    N1524    N        0.40663    0.18788    0.17523    1.000
    N1525    N        0.34760    0.07768    0.18849    1.000
    Si1526   Si       0.32149    0.05678    0.21566    1.000
    N1527    N        0.30195    0.02150    0.20286    1.000
    N1528    N        0.41086    0.05286    0.20083    1.000
    Si1529   Si       0.38480    0.08768    0.20745    1.000
    N1530    N        0.47114    0.03005    0.21025    1.000
    N1531    N        0.47411    0.10321    0.21393    1.000
    Si1532   Si       0.47606    0.06841    0.18898    1.000
    N1533    N        0.40522    0.11925    0.18859    1.000
    Si1534   Si       0.44919    0.13190    0.19394    1.000
    Si1535   Si       0.43389    0.03035    0.23003    1.000
    N1536    N        0.27629    0.13576    0.17828    1.000
    N1537    N        0.25041    0.19269    0.21329    1.000
    Si1538   Si       0.26580    0.15295    0.21685    1.000
    Si1539   Si       0.33404    0.17189    0.21910    1.000
    N1540    N        0.34192    0.15393    0.18253    1.000
    N1541    N        0.31607    0.21195    0.22476    1.000
    Si1542   Si       0.27397    0.22643    0.22928    1.000
    N1543    N        0.25831    0.25482    0.19978    1.000
    Si1544   Si       0.41239    0.19150    0.21749    1.000
    N1545    N        0.43894    0.15881    0.22719    1.000
    N1546    N        0.43490    0.22883    0.22693    1.000
    N1547    N        0.36745    0.25784    0.22597    1.000
    Si1548   Si       0.44381    0.26145    0.20036    1.000
    Si1549   Si       0.28587    0.11880    0.26374    1.000
    N1550    N        0.34479    0.03184    0.24756    1.000
    N1551    N        0.30797    0.08441    0.24825    1.000
    Si1552   Si       0.34500    0.07195    0.27068    1.000
    N1553    N        0.24523    0.12689    0.24442    1.000
    N1554    N        0.28459    0.00801    0.26917    1.000
    Si1555   Si       0.41607    0.08732    0.27236    1.000
    N1556    N        0.43929    0.05203    0.26657    1.000
    N1557    N        0.37941    0.08880    0.25027    1.000
    N1558    N        0.44523    0.11948    0.28300    1.000
    Si1559   Si       0.35293    0.22351    0.24781    1.000
    N1560    N        0.26729    0.24240    0.26879    1.000
    N1561    N        0.30228    0.15064    0.24012    1.000
    N1562    N        0.34551    0.23353    0.28745    1.000
    N1563    N        0.37246    0.18591    0.23466    1.000
    Si1564   Si       0.44180    0.23648    0.27029    1.000
    Si1565   Si       0.45265    0.15953    0.26774    1.000
    N1566    N        0.44028    0.19689    0.28879    1.000
    N1567    N        0.33748    0.07330    0.31227    1.000
    N1568    N        0.26212    0.06435    0.31278    1.000
    Si1569   Si       0.29763    0.08670    0.32611    1.000
    Si1570   Si       0.25886    0.02460    0.30036    1.000
    N1571    N        0.29233    0.12355    0.30562    1.000
    Si1572   Si       0.37286    0.06901    0.33727    1.000
    N1573    N        0.40778    0.07496    0.31327    1.000
    Si1574   Si       0.45255    0.12005    0.32628    1.000
    Si1575   Si       0.44822    0.05266    0.30965    1.000
    N1576    N        0.46778    0.07994    0.33789    1.000
    N1577    N        0.46737    0.01407    0.31805    1.000
    Si1578   Si       0.30459    0.16038    0.32745    1.000
    N1579    N        0.28487    0.19687    0.31046    1.000
    Si1580   Si       0.30854    0.23618    0.31275    1.000
    N1581    N        0.34736    0.15650    0.32637    1.000
    Si1582   Si       0.24793    0.21528    0.29800    1.000
    Si1583   Si       0.37918    0.24914    0.31124    1.000
    Si1584   Si       0.42716    0.19123    0.32930    1.000
    N1585    N        0.39567    0.22071    0.33799    1.000
    N1586    N        0.41874    0.14796    0.33761    1.000
    N1587    N        0.30379    0.08445    0.36942    1.000
    Si1588   Si       0.26414    0.08635    0.38879    1.000
    Si1589   Si       0.33934    0.08849    0.39350    1.000
    N1590    N        0.24626    0.04672    0.38830    1.000
    Si1591   Si       0.26470    0.01075    0.37655    1.000
    N1592    N        0.37094    0.10268    0.36545    1.000
    N1593    N        0.37285    0.03207    0.35936    1.000
    Si1594   Si       0.39697    0.02071    0.39525    1.000
    N1595    N        0.28884    0.15892    0.36714    1.000
    Si1596   Si       0.31650    0.24852    0.39476    1.000
    Si1597   Si       0.24526    0.15058    0.37197    1.000
    N1598    N        0.32586    0.22633    0.35382    1.000
    N1599    N        0.28361    0.21882    0.40393    1.000
    N1600    N        0.35924    0.23725    0.40286    1.000
    Si1601   Si       0.36302    0.21107    0.36904    1.000
    Si1602   Si       0.48198    0.21577    0.38781    1.000
    N1603    N        0.48869    0.25858    0.37895    1.000
    Si1604   Si       0.37965    0.14301    0.35315    1.000
    N1605    N        0.45970    0.19876    0.35449    1.000
    N1606    N        0.37326    0.17137    0.38642    1.000
    N1607    N        0.34689    0.11647    0.42652    1.000
    N1608    N        0.33513    0.05812    0.42222    1.000
    Si1609   Si       0.34255    0.08572    0.45821    1.000
    Si1610   Si       0.32799    0.01562    0.41784    1.000
    N1611    N        0.24868    0.09851    0.42777    1.000
    Si1612   Si       0.41430    0.08717    0.44421    1.000
    N1613    N        0.45279    0.10060    0.46217    1.000
    N1614    N        0.41054    0.05600    0.41837    1.000
    N1615    N        0.30525    0.17362    0.44814    1.000
    Si1616   Si       0.26878    0.23798    0.43982    1.000
    N1617    N        0.24733    0.16239    0.41352    1.000
    Si1618   Si       0.28809    0.17653    0.40765    1.000
    N1619    N        0.41182    0.13066    0.42649    1.000
    Si1620   Si       0.45012    0.14066    0.45061    1.000
    N1621    N        0.46788    0.21697    0.42842    1.000
    Si1622   Si       0.37289    0.15051    0.42619    1.000
    Si1623   Si       0.44565    0.25149    0.43912    1.000
    N1624    N        0.37212    0.17436    0.46394    1.000
    N1625    N        0.40599    0.23898    0.45494    1.000
    N1626    N        0.26164    0.02437    0.50630    1.000
    N1627    N        0.31756    0.06091    0.48603    1.000
    N1628    N        0.33209    0.12129    0.49122    1.000
    Si1629   Si       0.31717    0.09070    0.51807    1.000
    Si1630   Si       0.29982    0.02259    0.48398    1.000
    Si1631   Si       0.24560    0.12886    0.52244    1.000
    Si1632   Si       0.38221    0.06935    0.51580    1.000
    N1633    N        0.47966    0.06126    0.51332    1.000
    N1634    N        0.38328    0.08048    0.47425    1.000
    Si1635   Si       0.48786    0.09426    0.48672    1.000
    Si1636   Si       0.47648    0.01798    0.52126    1.000
    N1637    N        0.37969    0.02431    0.52018    1.000
    N1638    N        0.48345    0.12854    0.51422    1.000
    Si1639   Si       0.24548    0.24540    0.50700    1.000
    N1640    N        0.26010    0.21752    0.47720    1.000
    N1641    N        0.30562    0.18195    0.51121    1.000
    Si1642   Si       0.27714    0.17913    0.47918    1.000
    N1643    N        0.25175    0.14382    0.48296    1.000
    Si1644   Si       0.33357    0.16248    0.48099    1.000
    N1645    N        0.34997    0.26601    0.49550    1.000
    Si1646   Si       0.40495    0.19860    0.47605    1.000
    N1647    N        0.44039    0.17366    0.48006    1.000
    N1648    N        0.40208    0.22058    0.51444    1.000
    Si1649   Si       0.46823    0.17035    0.51215    1.000
    Si1650   Si       0.39150    0.25806    0.49385    1.000
    N1651    N        0.29821    0.03158    0.56095    1.000
    Si1652   Si       0.34193    0.02357    0.54518    1.000
    Si1653   Si       0.27749    0.07138    0.56596    1.000
    N1654    N        0.34751    0.07218    0.54527    1.000
    N1655    N        0.27678    0.09818    0.53189    1.000
    N1656    N        0.41834    0.07885    0.53764    1.000
    Si1657   Si       0.45600    0.06756    0.55101    1.000
    N1658    N        0.46528    0.02678    0.56484    1.000
    N1659    N        0.47528    0.09471    0.57721    1.000
    N1660    N        0.25376    0.15914    0.55266    1.000
    N1661    N        0.26096    0.22689    0.54355    1.000
    Si1662   Si       0.28455    0.19051    0.54803    1.000
    Si1663   Si       0.24573    0.23688    0.58374    1.000
    N1664    N        0.40855    0.23998    0.58329    1.000
    Si1665   Si       0.43159    0.22385    0.54915    1.000
    N1666    N        0.44608    0.18227    0.54709    1.000
    N1667    N        0.46658    0.24733    0.53898    1.000
    N1668    N        0.34347    0.04921    0.61880    1.000
    Si1669   Si       0.28975    0.10587    0.62895    1.000
    N1670    N        0.26929    0.06758    0.63833    1.000
    N1671    N        0.30422    0.09789    0.58943    1.000
    Si1672   Si       0.34616    0.08550    0.59062    1.000
    N1673    N        0.25724    0.13436    0.62717    1.000
    Si1674   Si       0.36668    0.01358    0.61178    1.000
    N1675    N        0.44837    0.08137    0.63775    1.000
    N1676    N        0.40708    0.03172    0.60880    1.000
    Si1677   Si       0.46532    0.11431    0.61548    1.000
    N1678    N        0.38371    0.09998    0.60741    1.000
    Si1679   Si       0.40653    0.06853    0.62988    1.000
    Si1680   Si       0.44496    0.01483    0.60053    1.000
    N1681    N        0.46714    0.01576    0.64202    1.000
    Si1682   Si       0.25504    0.16711    0.59643    1.000
    Si1683   Si       0.32965    0.18812    0.61364    1.000
    N1684    N        0.34378    0.23032    0.61570    1.000
    N1685    N        0.29379    0.18564    0.59044    1.000
    N1686    N        0.27383    0.25182    0.61328    1.000
    Si1687   Si       0.31248    0.25371    0.63273    1.000
    N1688    N        0.43996    0.14822    0.60827    1.000
    N1689    N        0.47373    0.21570    0.59808    1.000
    N1690    N        0.37075    0.17488    0.60317    1.000
    Si1691   Si       0.39567    0.14159    0.61651    1.000
    Si1692   Si       0.46535    0.17636    0.58670    1.000
    Si1693   Si       0.38516    0.21570    0.61182    1.000
    Si1694   Si       0.28072    0.03936    0.66949    1.000
    N1695    N        0.32066    0.04963    0.68842    1.000
    Si1696   Si       0.34456    0.06825    0.65716    1.000
    N1697    N        0.32558    0.10685    0.65193    1.000
    N1698    N        0.24455    0.03631    0.69039    1.000
    N1699    N        0.38636    0.05985    0.66786    1.000
    Si1700   Si       0.46949    0.05494    0.66210    1.000
    Si1701   Si       0.40581    0.03401    0.69519    1.000
    N1702    N        0.44769    0.05038    0.70054    1.000
    Si1703   Si       0.34091    0.14137    0.67169    1.000
    N1704    N        0.32064    0.17837    0.65697    1.000
    Si1705   Si       0.29705    0.20214    0.68315    1.000
    N1706    N        0.30443    0.24421    0.67516    1.000
    N1707    N        0.25280    0.20118    0.68232    1.000
    N1708    N        0.40460    0.21497    0.65090    1.000
    N1709    N        0.46083    0.24057    0.69067    1.000
    Si1710   Si       0.42246    0.24891    0.67257    1.000
    Si1711   Si       0.39536    0.18483    0.67973    1.000
    Si1712   Si       0.46941    0.19720    0.69387    1.000
    N1713    N        0.38331    0.14652    0.65938    1.000
    Si1714   Si       0.33755    0.03113    0.72252    1.000
    Si1715   Si       0.33463    0.12483    0.75287    1.000
    N1716    N        0.32195    0.04166    0.76163    1.000
    N1717    N        0.38148    0.03889    0.72963    1.000
    Si1718   Si       0.45726    0.04674    0.74329    1.000
    N1719    N        0.43039    0.07712    0.76117    1.000
    N1720    N        0.24087    0.15286    0.73439    1.000
    N1721    N        0.34321    0.14056    0.71307    1.000
    Si1722   Si       0.34147    0.18049    0.73306    1.000
    Si1723   Si       0.27462    0.17107    0.75181    1.000
    N1724    N        0.30031    0.19097    0.72439    1.000
    N1725    N        0.48499    0.18563    0.73374    1.000
    Si1726   Si       0.44172    0.17710    0.74642    1.000
    Si1727   Si       0.36785    0.24397    0.72548    1.000
    N1728    N        0.36753    0.20442    0.70753    1.000
    N1729    N        0.43155    0.18007    0.70404    1.000
    N1730    N        0.25606    0.09128    0.78237    1.000
    Si1731   Si       0.33540    0.06177    0.79796    1.000
    N1732    N        0.25415    0.02160    0.78223    1.000
    Si1733   Si       0.28412    0.11401    0.80473    1.000
    Si1734   Si       0.29618    0.01348    0.78389    1.000
    Si1735   Si       0.24081    0.05662    0.80282    1.000
    N1736    N        0.36519    0.09756    0.76550    1.000
    N1737    N        0.32222    0.09807    0.81896    1.000
    N1738    N        0.45612    0.09944    0.81731    1.000
    N1739    N        0.44128    0.01120    0.76185    1.000
    N1740    N        0.37611    0.04499    0.80271    1.000
    Si1741   Si       0.45409    0.11126    0.77684    1.000
    Si1742   Si       0.39112    0.05906    0.76538    1.000
    Si1743   Si       0.38775    0.13202    0.78179    1.000
    N1744    N        0.29708    0.13575    0.76734    1.000
    Si1745   Si       0.28266    0.21933    0.80307    1.000
    N1746    N        0.25340    0.19402    0.78308    1.000
    Si1747   Si       0.35035    0.18497    0.80814    1.000
    N1748    N        0.32522    0.21480    0.78789    1.000
    N1749    N        0.35894    0.16250    0.77092    1.000
    N1750    N        0.39076    0.19654    0.82008    1.000
    N1751    N        0.44689    0.20401    0.78055    1.000
    N1752    N        0.38557    0.24456    0.76497    1.000
    N1753    N        0.42704    0.14305    0.76858    1.000
    Si1754   Si       0.41438    0.22626    0.79836    1.000
    Si1755   Si       0.29261    0.04068    0.85951    1.000
    N1756    N        0.25060    0.05131    0.84436    1.000
    Si1757   Si       0.34828    0.12219    0.84324    1.000
    N1758    N        0.26326    0.12882    0.83846    1.000
    Si1759   Si       0.27914    0.10822    0.87385    1.000
    N1760    N        0.30934    0.03304    0.82171    1.000
    Si1761   Si       0.48969    0.08298    0.84088    1.000
    N1762    N        0.42275    0.07621    0.87108    1.000
    Si1763   Si       0.44438    0.03811    0.86961    1.000
    Si1764   Si       0.38352    0.01828    0.83655    1.000
    Si1765   Si       0.42434    0.11168    0.84528    1.000
    N1766    N        0.42970    0.01824    0.83509    1.000
    N1767    N        0.36977    0.03442    0.87540    1.000
    N1768    N        0.38843    0.12225    0.82393    1.000
    N1769    N        0.48430    0.04418    0.85849    1.000
    N1770    N        0.33205    0.16105    0.84051    1.000
    Si1771   Si       0.29777    0.17918    0.87026    1.000
    N1772    N        0.28697    0.21519    0.84454    1.000
    Si1773   Si       0.30171    0.24201    0.87515    1.000
    Si1774   Si       0.41596    0.18901    0.85291    1.000
    N1775    N        0.44658    0.21961    0.85388    1.000
    N1776    N        0.43552    0.15154    0.85858    1.000
    Si1777   Si       0.47670    0.15326    0.87703    1.000
    N1778    N        0.29774    0.07196    0.88884    1.000
    Si1779   Si       0.30406    0.06758    0.93221    1.000
    Si1780   Si       0.34324    0.01169    0.90093    1.000
    N1781    N        0.24828    0.11357    0.90254    1.000
    N1782    N        0.36059    0.10962    0.88328    1.000
    Si1783   Si       0.33831    0.13138    0.91389    1.000
    N1784    N        0.33272    0.03259    0.93638    1.000
    N1785    N        0.44416    0.01793    0.90846    1.000
    Si1786   Si       0.38349    0.07345    0.89058    1.000
    N1787    N        0.39330    0.06887    0.93221    1.000
    N1788    N        0.25719    0.18598    0.89606    1.000
    Si1789   Si       0.26456    0.14921    0.91869    1.000
    N1790    N        0.30045    0.14150    0.89253    1.000
    N1791    N        0.31987    0.20849    0.89487    1.000
    Si1792   Si       0.34590    0.20172    0.92635    1.000
    N1793    N        0.35903    0.16151    0.93502    1.000
    N1794    N        0.39061    0.19971    0.88551    1.000
    N1795    N        0.43935    0.20989    0.93172    1.000
    N1796    N        0.47622    0.15365    0.92152    1.000
    N1797    N        0.37255    0.23699    0.93310    1.000
    Si1798   Si       0.40960    0.22980    0.90847    1.000
    N1799    N        0.27997    0.06814    0.96683    1.000
    N1800    N        0.32728    0.10232    0.94442    1.000
    Si1801   Si       0.32099    0.11571    0.98642    1.000
    Si1802   Si       0.35835    0.01863    0.97166    1.000
    N1803    N        0.44970    0.06539    0.96255    1.000
    Si1804   Si       0.41386    0.09266    0.96301    1.000
    N1805    N        0.40084    0.01111    0.96639    1.000
    Si1806   Si       0.42203    0.03717    0.93985    1.000
    Si1807   Si       0.29586    0.24402    0.97103    1.000
    N1808    N        0.32117    0.20961    0.96376    1.000
    N1809    N        0.29408    0.14962    0.98296    1.000
    N1810    N        0.25359    0.25224    0.95923    1.000
    Si1811   Si       0.25304    0.15362    0.99130    1.000
    N1812    N        0.48775    0.25963    0.94136    1.000
    Si1813   Si       0.46176    0.23003    0.96595    1.000
    Si1814   Si       0.38437    0.15834    0.97019    1.000
    N1815    N        0.46127    0.18794    0.98835    1.000
    N1816    N        0.39187    0.19802    0.98608    1.000
    Si1817   Si       0.38766    0.24116    0.97419    1.000
    N1818    N        0.42003    0.13464    0.96258    1.000
    Si1819   Si       0.44478    0.16865    0.95013    1.000
    N1820    N        0.42792    0.25796    0.97544    1.000
    Si1821   Si       0.26301    0.27983    0.02970    1.000
    Si1822   Si       0.29755    0.33854    0.01062    1.000
    N1823    N        0.25843    0.31902    0.01107    1.000
    N1824    N        0.29795    0.26188    0.01210    1.000
    N1825    N        0.28673    0.38184    0.00851    1.000
    N1826    N        0.36207    0.26360    0.99857    1.000
    Si1827   Si       0.36847    0.30749    0.00398    1.000
    N1828    N        0.43747    0.28524    0.03720    1.000
    N1829    N        0.37096    0.31390    0.04636    1.000
    N1830    N        0.48090    0.38071    0.02234    1.000
    Si1831   Si       0.24471    0.38879    0.01195    1.000
    Si1832   Si       0.32039    0.40792    0.01941    1.000
    N1833    N        0.30566    0.44935    0.02236    1.000
    Si1834   Si       0.32351    0.47821    0.05062    1.000
    N1835    N        0.35690    0.48651    0.02523    1.000
    N1836    N        0.34341    0.38967    0.05236    1.000
    Si1837   Si       0.44891    0.40514    0.00512    1.000
    N1838    N        0.44013    0.41917    0.04593    1.000
    Si1839   Si       0.39708    0.50806    0.03404    1.000
    N1840    N        0.48137    0.48796    0.02633    1.000
    N1841    N        0.41958    0.50142    0.99728    1.000
    Si1842   Si       0.28321    0.32051    0.08932    1.000
    N1843    N        0.26943    0.28048    0.07269    1.000
    Si1844   Si       0.34829    0.34761    0.06145    1.000
    N1845    N        0.30690    0.33383    0.05593    1.000
    N1846    N        0.36432    0.35830    0.10090    1.000
    N1847    N        0.47117    0.37199    0.09246    1.000
    N1848    N        0.42373    0.32705    0.08785    1.000
    Si1849   Si       0.46443    0.33094    0.10062    1.000
    Si1850   Si       0.40571    0.29622    0.06500    1.000
    N1851    N        0.41053    0.26506    0.09583    1.000
    N1852    N        0.32553    0.46359    0.09124    1.000
    N1853    N        0.27265    0.41910    0.07639    1.000
    Si1854   Si       0.35364    0.40010    0.09413    1.000
    Si1855   Si       0.29565    0.43449    0.10755    1.000
    N1856    N        0.24800    0.50073    0.09850    1.000
    N1857    N        0.40989    0.48075    0.06542    1.000
    N1858    N        0.48658    0.50547    0.10421    1.000
    Si1859   Si       0.42217    0.44226    0.07780    1.000
    N1860    N        0.38588    0.42685    0.09751    1.000
    N1861    N        0.45747    0.43341    0.10717    1.000
    Si1862   Si       0.47872    0.40057    0.06185    1.000
    Si1863   Si       0.28956    0.28767    0.15225    1.000
    Si1864   Si       0.34471    0.31938    0.15080    1.000
    N1865    N        0.30974    0.31419    0.12280    1.000
    Si1866   Si       0.24983    0.35264    0.15367    1.000
    N1867    N        0.26423    0.25671    0.13352    1.000
    N1868    N        0.25242    0.34487    0.10982    1.000
    Si1869   Si       0.42098    0.28369    0.13359    1.000
    N1870    N        0.45998    0.30505    0.13696    1.000
    N1871    N        0.38558    0.31079    0.14196    1.000
    N1872    N        0.42231    0.37296    0.14112    1.000
    Si1873   Si       0.40008    0.34412    0.11978    1.000
    Si1874   Si       0.33644    0.39884    0.16593    1.000
    N1875    N        0.27169    0.44980    0.13994    1.000
    N1876    N        0.32237    0.40434    0.12619    1.000
    Si1877   Si       0.24401    0.48211    0.13837    1.000
    N1878    N        0.35850    0.48125    0.15138    1.000
    Si1879   Si       0.34078    0.49602    0.11664    1.000
    Si1880   Si       0.39906    0.45858    0.16007    1.000
    Si1881   Si       0.45747    0.39460    0.12752    1.000
    N1882    N        0.42235    0.48270    0.12877    1.000
    N1883    N        0.48610    0.39213    0.16047    1.000
    Si1884   Si       0.46377    0.47207    0.12478    1.000
    Si1885   Si       0.26696    0.29717    0.21204    1.000
    Si1886   Si       0.33604    0.28714    0.21965    1.000
    N1887    N        0.32491    0.29054    0.17916    1.000
    Si1888   Si       0.36165    0.35624    0.21543    1.000
    N1889    N        0.26202    0.31730    0.17323    1.000
    N1890    N        0.34717    0.35834    0.17268    1.000
    N1891    N        0.47365    0.35258    0.22058    1.000
    N1892    N        0.40535    0.36784    0.21114    1.000
    N1893    N        0.42331    0.29867    0.21110    1.000
    N1894    N        0.48649    0.27003    0.20039    1.000
    Si1895   Si       0.43349    0.33685    0.22645    1.000
    N1896    N        0.24999    0.38982    0.17766    1.000
    N1897    N        0.30842    0.41846    0.19314    1.000
    N1898    N        0.24453    0.44876    0.20640    1.000
    Si1899   Si       0.27094    0.42951    0.17706    1.000
    Si1900   Si       0.30151    0.40249    0.23279    1.000
    N1901    N        0.31954    0.50981    0.19760    1.000
    N1902    N        0.25380    0.50744    0.17127    1.000
    N1903    N        0.43389    0.42994    0.17324    1.000
    Si1904   Si       0.47864    0.43043    0.17922    1.000
    Si1905   Si       0.40977    0.39261    0.17631    1.000
    N1906    N        0.39903    0.48295    0.20027    1.000
    Si1907   Si       0.36508    0.50651    0.19039    1.000
    N1908    N        0.37477    0.41824    0.17056    1.000
    Si1909   Si       0.28054    0.28508    0.28051    1.000
    N1910    N        0.29901    0.29730    0.24168    1.000
    N1911    N        0.33096    0.37168    0.24165    1.000
    N1912    N        0.36416    0.31661    0.23245    1.000
    N1913    N        0.41752    0.32752    0.26954    1.000
    Si1914   Si       0.39610    0.28896    0.24467    1.000
    Si1915   Si       0.48273    0.36436    0.26100    1.000
    N1916    N        0.47511    0.26480    0.27120    1.000
    N1917    N        0.40641    0.26585    0.27987    1.000
    Si1918   Si       0.41412    0.36800    0.28887    1.000
    Si1919   Si       0.33485    0.38762    0.28221    1.000
    N1920    N        0.31740    0.42588    0.26733    1.000
    Si1921   Si       0.27134    0.49110    0.28338    1.000
    N1922    N        0.31341    0.49246    0.26895    1.000
    N1923    N        0.26097    0.39643    0.24672    1.000
    Si1924   Si       0.33851    0.45996    0.28097    1.000
    Si1925   Si       0.26473    0.41121    0.28856    1.000
    Si1926   Si       0.45278    0.43002    0.27847    1.000
    N1927    N        0.44755    0.38791    0.27055    1.000
    N1928    N        0.44679    0.45514    0.24305    1.000
    N1929    N        0.38259    0.45832    0.26754    1.000
    Si1930   Si       0.41186    0.48148    0.24306    1.000
    N1931    N        0.30698    0.27850    0.31407    1.000
    Si1932   Si       0.33375    0.29990    0.34217    1.000
    N1933    N        0.24626    0.30655    0.29842    1.000
    N1934    N        0.33725    0.34466    0.34432    1.000
    N1935    N        0.29628    0.38313    0.30474    1.000
    Si1936   Si       0.30232    0.37055    0.34567    1.000
    N1937    N        0.37482    0.28843    0.33023    1.000
    N1938    N        0.44660    0.28796    0.32967    1.000
    N1939    N        0.41423    0.34834    0.32847    1.000
    Si1940   Si       0.41113    0.30769    0.30970    1.000
    Si1941   Si       0.48192    0.29590    0.30378    1.000
    N1942    N        0.26202    0.45365    0.30128    1.000
    N1943    N        0.35227    0.44784    0.32187    1.000
    Si1944   Si       0.38826    0.43250    0.30242    1.000
    Si1945   Si       0.45248    0.45994    0.34506    1.000
    N1946    N        0.42761    0.44126    0.31386    1.000
    N1947    N        0.44587    0.50287    0.34801    1.000
    N1948    N        0.48881    0.43700    0.34970    1.000
    N1949    N        0.37689    0.38998    0.29189    1.000
    N1950    N        0.31194    0.29233    0.38114    1.000
    Si1951   Si       0.27604    0.31478    0.38906    1.000
    N1952    N        0.26980    0.35338    0.36778    1.000
    N1953    N        0.24284    0.29131    0.37565    1.000
    Si1954   Si       0.45430    0.28423    0.37280    1.000
    N1955    N        0.46407    0.32405    0.38219    1.000
    N1956    N        0.39731    0.34275    0.38863    1.000
    Si1957   Si       0.43336    0.35232    0.36941    1.000
    Si1958   Si       0.37687    0.35852    0.35291    1.000
    N1959    N        0.42676    0.27136    0.40477    1.000
    N1960    N        0.35165    0.45350    0.39663    1.000
    N1961    N        0.29787    0.47906    0.36897    1.000
    Si1962   Si       0.34786    0.42957    0.36065    1.000
    N1963    N        0.30856    0.40994    0.36650    1.000
    Si1964   Si       0.27877    0.44161    0.38042    1.000
    Si1965   Si       0.33830    0.49333    0.38621    1.000
    N1966    N        0.24321    0.42273    0.36354    1.000
    Si1967   Si       0.26733    0.50816    0.35397    1.000
    N1968    N        0.42445    0.45633    0.38337    1.000
    N1969    N        0.37994    0.40076    0.36242    1.000
    Si1970   Si       0.41622    0.49917    0.38013    1.000
    Si1971   Si       0.48649    0.41322    0.38826    1.000
    Si1972   Si       0.41429    0.41409    0.38685    1.000
    N1973    N        0.44871    0.39183    0.37725    1.000
    N1974    N        0.37709    0.50727    0.36540    1.000
    Si1975   Si       0.25383    0.36698    0.44315    1.000
    N1976    N        0.26484    0.32703    0.43027    1.000
    Si1977   Si       0.27192    0.29449    0.45865    1.000
    N1978    N        0.30298    0.26609    0.43963    1.000
    Si1979   Si       0.33512    0.28436    0.46032    1.000
    N1980    N        0.35934    0.36340    0.45006    1.000
    N1981    N        0.29504    0.38425    0.44845    1.000
    N1982    N        0.37148    0.29818    0.44101    1.000
    N1983    N        0.42582    0.34818    0.45516    1.000
    Si1984   Si       0.38926    0.33987    0.43166    1.000
    Si1985   Si       0.38770    0.26350    0.42041    1.000
    Si1986   Si       0.46034    0.32342    0.46599    1.000
    N1987    N        0.46282    0.27934    0.46648    1.000
    N1988    N        0.34680    0.43117    0.45933    1.000
    N1989    N        0.27702    0.44505    0.42516    1.000
    Si1990   Si       0.30377    0.42730    0.45340    1.000
    Si1991   Si       0.24391    0.46560    0.44108    1.000
    N1992    N        0.47099    0.40256    0.45548    1.000
    N1993    N        0.39170    0.48081    0.45125    1.000
    Si1994   Si       0.37821    0.44583    0.43168    1.000
    N1995    N        0.40570    0.41098    0.42853    1.000
    Si1996   Si       0.42879    0.39160    0.45906    1.000
    N1997    N        0.45791    0.47607    0.46705    1.000
    Si1998   Si       0.43081    0.50267    0.44825    1.000
    Si1999   Si       0.48795    0.44492    0.45654    1.000
    N2000    N        0.26446    0.28486    0.50171    1.000
    N2001    N        0.31180    0.31742    0.47689    1.000
    Si2002   Si       0.30004    0.30509    0.51858    1.000
    N2003    N        0.34053    0.37664    0.50688    1.000
    Si2004   Si       0.32119    0.35828    0.47041    1.000
    N2005    N        0.41694    0.28752    0.51220    1.000
    N2006    N        0.46724    0.32466    0.51018    1.000
    Si2007   Si       0.45860    0.27809    0.50939    1.000
    Si2008   Si       0.31541    0.46307    0.51252    1.000
    N2009    N        0.35870    0.46532    0.52103    1.000
    Si2010   Si       0.24683    0.42489    0.49792    1.000
    N2011    N        0.31793    0.48768    0.47639    1.000
    Si2012   Si       0.36241    0.48716    0.48261    1.000
    N2013    N        0.29063    0.43191    0.49552    1.000
    Si2014   Si       0.45472    0.50029    0.50379    1.000
    N2015    N        0.40628    0.40281    0.49598    1.000
    N2016    N        0.41523    0.49641    0.52070    1.000
    Si2017   Si       0.36665    0.39700    0.47825    1.000
    N2018    N        0.32067    0.29821    0.55426    1.000
    Si2019   Si       0.32263    0.36528    0.54399    1.000
    Si2020   Si       0.26278    0.37647    0.54963    1.000
    N2021    N        0.28627    0.34720    0.52880    1.000
    N2022    N        0.34356    0.35434    0.58143    1.000
    Si2023   Si       0.42899    0.32334    0.53432    1.000
    N2024    N        0.44300    0.30501    0.57278    1.000
    N2025    N        0.41056    0.36078    0.54993    1.000
    Si2026   Si       0.30062    0.50824    0.57501    1.000
    N2027    N        0.29815    0.39536    0.56489    1.000
    N2028    N        0.29674    0.47014    0.55127    1.000
    Si2029   Si       0.27572    0.43496    0.56681    1.000
    N2030    N        0.24403    0.41641    0.54166    1.000
    N2031    N        0.45707    0.41740    0.53846    1.000
    Si2032   Si       0.45112    0.43267    0.57848    1.000
    Si2033   Si       0.41723    0.40157    0.53650    1.000
    N2034    N        0.40604    0.43291    0.56927    1.000
    Si2035   Si       0.39031    0.47266    0.54918    1.000
    N2036    N        0.32086    0.29634    0.62713    1.000
    N2037    N        0.29598    0.36343    0.63026    1.000
    Si2038   Si       0.25194    0.36001    0.62208    1.000
    N2039    N        0.25387    0.31856    0.63901    1.000
    Si2040   Si       0.33942    0.31108    0.59213    1.000
    Si2041   Si       0.24267    0.27870    0.62513    1.000
    Si2042   Si       0.41601    0.27894    0.59827    1.000
    N2043    N        0.46197    0.33705    0.63029    1.000
    Si2044   Si       0.47650    0.31888    0.59413    1.000
    N2045    N        0.38261    0.30913    0.59580    1.000
    N2046    N        0.42906    0.27665    0.63909    1.000
    Si2047   Si       0.44687    0.37650    0.63388    1.000
    N2048    N        0.40731    0.37816    0.61224    1.000
    Si2049   Si       0.38935    0.34990    0.58572    1.000
    Si2050   Si       0.31968    0.38572    0.60138    1.000
    Si2051   Si       0.31926    0.45134    0.62002    1.000
    N2052    N        0.32107    0.49501    0.61380    1.000
    N2053    N        0.34433    0.41898    0.60830    1.000
    N2054    N        0.27832    0.43642    0.60981    1.000
    Si2055   Si       0.24426    0.44074    0.64001    1.000
    Si2056   Si       0.43090    0.50192    0.59980    1.000
    N2057    N        0.46755    0.40389    0.60641    1.000
    Si2058   Si       0.38815    0.41812    0.60984    1.000
    N2059    N        0.46270    0.47136    0.59460    1.000
    N2060    N        0.38919    0.49660    0.58722    1.000
    N2061    N        0.30019    0.31540    0.69178    1.000
    Si2062   Si       0.29621    0.32299    0.64977    1.000
    Si2063   Si       0.45789    0.30329    0.65878    1.000
    N2064    N        0.44017    0.31718    0.69491    1.000
    N2065    N        0.37331    0.33727    0.69411    1.000
    N2066    N        0.39470    0.26787    0.70133    1.000
    Si2067   Si       0.32966    0.50118    0.65894    1.000
    N2068    N        0.27020    0.44668    0.67481    1.000
    N2069    N        0.33433    0.45930    0.66282    1.000
    N2070    N        0.33942    0.39835    0.69027    1.000
    Si2071   Si       0.29880    0.41742    0.69223    1.000
    Si2072   Si       0.36489    0.43348    0.67807    1.000
    Si2073   Si       0.48693    0.39647    0.69493    1.000
    N2074    N        0.39769    0.43441    0.64911    1.000
    N2075    N        0.44847    0.39720    0.67287    1.000
    N2076    N        0.45445    0.46451    0.69091    1.000
    Si2077   Si       0.42649    0.43340    0.68209    1.000
    Si2078   Si       0.28815    0.34751    0.71898    1.000
    N2079    N        0.32073    0.35911    0.74289    1.000
    N2080    N        0.25098    0.33908    0.73901    1.000
    Si2081   Si       0.35352    0.36727    0.71593    1.000
    N2082    N        0.25458    0.27221    0.70934    1.000
    N2083    N        0.33101    0.26280    0.73472    1.000
    Si2084   Si       0.29907    0.27449    0.70501    1.000
    N2085    N        0.44772    0.35891    0.74749    1.000
    Si2086   Si       0.47062    0.33686    0.71822    1.000
    Si2087   Si       0.40052    0.31046    0.71235    1.000
    N2088    N        0.38121    0.37861    0.74807    1.000
    N2089    N        0.39602    0.31292    0.75546    1.000
    N2090    N        0.27138    0.38479    0.70238    1.000
    N2091    N        0.30543    0.44544    0.72720    1.000
    N2092    N        0.25393    0.48583    0.74140    1.000
    Si2093   Si       0.28053    0.47656    0.70791    1.000
    Si2094   Si       0.38796    0.42123    0.75326    1.000
    Si2095   Si       0.45030    0.49362    0.72376    1.000
    N2096    N        0.39173    0.43758    0.71245    1.000
    N2097    N        0.46939    0.48236    0.76104    1.000
    N2098    N        0.34879    0.28411    0.80329    1.000
    N2099    N        0.33735    0.36934    0.81558    1.000
    N2100    N        0.28108    0.26144    0.78779    1.000
    Si2101   Si       0.24061    0.27186    0.79754    1.000
    Si2102   Si       0.32432    0.25878    0.77855    1.000
    Si2103   Si       0.38854    0.28222    0.78587    1.000
    N2104    N        0.40833    0.36219    0.81255    1.000
    Si2105   Si       0.40851    0.35198    0.76890    1.000
    N2106    N        0.42151    0.26763    0.81329    1.000
    N2107    N        0.47648    0.38477    0.80528    1.000
    Si2108   Si       0.33046    0.38386    0.77634    1.000
    Si2109   Si       0.31019    0.44362    0.76988    1.000
    N2110    N        0.35149    0.43019    0.77345    1.000
    N2111    N        0.29092    0.40584    0.78149    1.000
    N2112    N        0.29467    0.47753    0.79252    1.000
    Si2113   Si       0.24959    0.39990    0.79127    1.000
    Si2114   Si       0.24961    0.47647    0.78489    1.000
    Si2115   Si       0.44323    0.46210    0.78837    1.000
    N2116    N        0.42898    0.42432    0.76881    1.000
    N2117    N        0.40952    0.48543    0.79611    1.000
    Si2118   Si       0.46197    0.39532    0.76564    1.000
    Si2119   Si       0.34137    0.29839    0.84365    1.000
    N2120    N        0.30348    0.32199    0.84437    1.000
    Si2121   Si       0.26541    0.31031    0.86192    1.000
    Si2122   Si       0.29772    0.36654    0.83449    1.000
    N2123    N        0.33486    0.27078    0.87556    1.000
    N2124    N        0.25515    0.36829    0.82083    1.000
    Si2125   Si       0.44557    0.36986    0.83311    1.000
    N2126    N        0.37630    0.32269    0.85790    1.000
    Si2127   Si       0.37374    0.36012    0.83880    1.000
    N2128    N        0.46316    0.33527    0.85366    1.000
    N2129    N        0.47950    0.27182    0.86731    1.000
    Si2130   Si       0.43790    0.26276    0.85161    1.000
    N2131    N        0.37253    0.38512    0.87402    1.000
    N2132    N        0.35151    0.49924    0.83050    1.000
    N2133    N        0.30140    0.39088    0.87130    1.000
    N2134    N        0.44232    0.40101    0.86341    1.000
    N2135    N        0.39572    0.45352    0.86516    1.000
    Si2136   Si       0.39327    0.48684    0.83523    1.000
    N2137    N        0.46637    0.45831    0.82270    1.000
    Si2138   Si       0.46181    0.49557    0.84652    1.000
    Si2139   Si       0.27060    0.35529    0.91897    1.000
    N2140    N        0.31384    0.35004    0.92072    1.000
    Si2141   Si       0.34757    0.27001    0.91720    1.000
    N2142    N        0.27032    0.27512    0.88670    1.000
    Si2143   Si       0.27000    0.28250    0.93145    1.000
    N2144    N        0.24904    0.34329    0.88145    1.000
    N2145    N        0.36769    0.30649    0.92463    1.000
    N2146    N        0.31164    0.27039    0.94045    1.000
    N2147    N        0.42855    0.33429    0.91609    1.000
    Si2148   Si       0.39913    0.31056    0.89313    1.000
    Si2149   Si       0.46587    0.33952    0.89719    1.000
    N2150    N        0.41203    0.26960    0.88796    1.000
    N2151    N        0.48709    0.37771    0.90539    1.000
    Si2152   Si       0.33555    0.38298    0.89857    1.000
    Si2153   Si       0.31638    0.45727    0.92058    1.000
    N2154    N        0.33873    0.42060    0.92147    1.000
    N2155    N        0.34500    0.48434    0.90025    1.000
    N2156    N        0.25948    0.39619    0.92746    1.000
    N2157    N        0.28378    0.45614    0.89401    1.000
    Si2158   Si       0.26911    0.41497    0.88796    1.000
    Si2159   Si       0.26617    0.49389    0.88393    1.000
    N2160    N        0.40278    0.42410    0.92315    1.000
    N2161    N        0.48953    0.49748    0.87851    1.000
    N2162    N        0.40781    0.50023    0.91884    1.000
    Si2163   Si       0.48851    0.47793    0.91807    1.000
    N2164    N        0.46472    0.44241    0.91318    1.000
    Si2165   Si       0.47777    0.41371    0.88235    1.000
    Si2166   Si       0.38355    0.46406    0.91104    1.000
    Si2167   Si       0.40344    0.41366    0.87943    1.000
    N2168    N        0.33411    0.32917    0.98912    1.000
    Si2169   Si       0.34369    0.33650    0.94789    1.000
    N2170    N        0.25646    0.32160    0.94179    1.000
    N2171    N        0.37318    0.36862    0.94658    1.000
    N2172    N        0.40474    0.32314    0.98603    1.000
    Si2173   Si       0.41197    0.35190    0.95399    1.000
    N2174    N        0.47593    0.31272    0.98869    1.000
    Si2175   Si       0.43701    0.29525    0.99604    1.000
    Si2176   Si       0.34401    0.45878    0.98948    1.000
    N2177    N        0.31034    0.46406    0.96286    1.000
    N2178    N        0.35096    0.41672    0.99013    1.000
    N2179    N        0.26031    0.50076    0.98591    1.000
    Si2180   Si       0.27637    0.45859    0.98945    1.000
    N2181    N        0.24219    0.43174    0.99377    1.000
    Si2182   Si       0.36989    0.41235    0.95061    1.000
    Si2183   Si       0.44086    0.42228    0.94427    1.000
    N2184    N        0.47802    0.50430    0.95341    1.000
    Si2185   Si       0.45971    0.48463    0.98798    1.000
    N2186    N        0.43709    0.38541    0.96736    1.000
    N2187    N        0.37391    0.46831    0.95916    1.000
    N2188    N        0.44981    0.44267    0.98268    1.000
    Si2189   Si       0.39632    0.50703    0.96174    1.000
    N2190    N        0.28800    0.62036    0.04468    1.000
    Si2191   Si       0.29962    0.62231    0.00459    1.000
    N2192    N        0.37443    0.54817    0.03356    1.000
    N2193    N        0.45664    0.59959    0.04333    1.000
    Si2194   Si       0.41734    0.61961    0.04644    1.000
    N2195    N        0.39995    0.60589    0.00728    1.000
    Si2196   Si       0.37272    0.57368    0.99827    1.000
    Si2197   Si       0.47060    0.60248    0.00152    1.000
    Si2198   Si       0.27748    0.73760    0.03986    1.000
    N2199    N        0.24958    0.70331    0.03980    1.000
    Si2200   Si       0.26964    0.66231    0.04492    1.000
    N2201    N        0.34819    0.70272    0.02299    1.000
    N2202    N        0.29402    0.66534    0.00362    1.000
    N2203    N        0.29534    0.73932    0.99964    1.000
    Si2204   Si       0.45235    0.73108    0.04097    1.000
    N2205    N        0.40469    0.66140    0.04992    1.000
    Si2206   Si       0.39055    0.69030    0.01894    1.000
    N2207    N        0.42546    0.71696    0.01077    1.000
    N2208    N        0.27167    0.56758    0.08696    1.000
    Si2209   Si       0.29720    0.59985    0.08155    1.000
    N2210    N        0.33741    0.58496    0.08377    1.000
    Si2211   Si       0.28243    0.52625    0.09153    1.000
    Si2212   Si       0.34849    0.54783    0.06776    1.000
    N2213    N        0.31283    0.52023    0.06193    1.000
    N2214    N        0.29138    0.63002    0.11569    1.000
    Si2215   Si       0.36967    0.60937    0.10265    1.000
    N2216    N        0.36951    0.52235    0.09761    1.000
    Si2217   Si       0.43850    0.57264    0.08426    1.000
    N2218    N        0.40379    0.59808    0.08002    1.000
    N2219    N        0.48009    0.57666    0.09891    1.000
    Si2220   Si       0.47842    0.51592    0.06039    1.000
    N2221    N        0.43828    0.53426    0.06429    1.000
    Si2222   Si       0.41205    0.51292    0.09739    1.000
    N2223    N        0.30347    0.68215    0.07351    1.000
    Si2224   Si       0.33403    0.71156    0.06265    1.000
    N2225    N        0.35836    0.65209    0.10281    1.000
    Si2226   Si       0.31631    0.66550    0.10913    1.000
    N2227    N        0.31397    0.75069    0.06174    1.000
    N2228    N        0.42835    0.67819    0.11217    1.000
    Si2229   Si       0.39395    0.75016    0.09462    1.000
    N2230    N        0.43184    0.73837    0.07961    1.000
    N2231    N        0.47888    0.70269    0.06117    1.000
    N2232    N        0.37062    0.71435    0.08559    1.000
    Si2233   Si       0.45627    0.70809    0.09972    1.000
    Si2234   Si       0.39048    0.67783    0.08810    1.000
    N2235    N        0.30452    0.51880    0.12780    1.000
    Si2236   Si       0.29148    0.52776    0.16788    1.000
    Si2237   Si       0.34423    0.57773    0.16935    1.000
    N2238    N        0.24207    0.61582    0.16529    1.000
    N2239    N        0.37114    0.54407    0.17108    1.000
    N2240    N        0.37474    0.59824    0.14340    1.000
    Si2241   Si       0.47256    0.54307    0.12555    1.000
    Si2242   Si       0.40420    0.56614    0.15580    1.000
    N2243    N        0.42817    0.54826    0.12380    1.000
    N2244    N        0.48586    0.56186    0.16217    1.000
    N2245    N        0.48967    0.63427    0.14106    1.000
    Si2246   Si       0.25184    0.63756    0.12751    1.000
    N2247    N        0.24721    0.68046    0.13078    1.000
    N2248    N        0.31781    0.68800    0.14597    1.000
    N2249    N        0.27352    0.74548    0.15710    1.000
    Si2250   Si       0.27756    0.70140    0.15579    1.000
    N2251    N        0.38654    0.69587    0.15938    1.000
    Si2252   Si       0.42351    0.67429    0.15437    1.000
    Si2253   Si       0.39157    0.73818    0.16972    1.000
    Si2254   Si       0.26588    0.59195    0.19170    1.000
    N2255    N        0.35318    0.59228    0.20882    1.000
    N2256    N        0.28706    0.61829    0.21898    1.000
    N2257    N        0.23920    0.56424    0.21176    1.000
    N2258    N        0.30025    0.57011    0.17283    1.000
    N2259    N        0.42567    0.57836    0.19164    1.000
    Si2260   Si       0.46798    0.58169    0.19724    1.000
    Si2261   Si       0.39719    0.59253    0.22165    1.000
    N2262    N        0.48609    0.62240    0.20610    1.000
    N2263    N        0.47726    0.55722    0.23226    1.000
    N2264    N        0.33644    0.66778    0.21054    1.000
    Si2265   Si       0.29370    0.66119    0.22170    1.000
    N2266    N        0.26930    0.68734    0.19585    1.000
    N2267    N        0.35581    0.73396    0.19607    1.000
    Si2268   Si       0.34654    0.69282    0.17785    1.000
    Si2269   Si       0.23994    0.71075    0.21462    1.000
    N2270    N        0.40024    0.63550    0.22713    1.000
    Si2271   Si       0.43684    0.65684    0.22720    1.000
    N2272    N        0.42627    0.74929    0.19694    1.000
    Si2273   Si       0.44866    0.71637    0.21356    1.000
    Si2274   Si       0.48725    0.65382    0.17701    1.000
    N2275    N        0.48360    0.73401    0.23064    1.000
    N2276    N        0.45023    0.67612    0.18898    1.000
    N2277    N        0.30061    0.55489    0.25063    1.000
    Si2278   Si       0.25673    0.55030    0.24754    1.000
    N2279    N        0.33975    0.61666    0.26545    1.000
    Si2280   Si       0.32420    0.51977    0.23904    1.000
    Si2281   Si       0.31796    0.59357    0.23538    1.000
    N2282    N        0.24155    0.57383    0.28026    1.000
    N2283    N        0.24893    0.50553    0.24788    1.000
    N2284    N        0.36673    0.52414    0.23657    1.000
    Si2285   Si       0.38429    0.53882    0.27480    1.000
    N2286    N        0.40639    0.57702    0.26243    1.000
    Si2287   Si       0.44783    0.55273    0.26336    1.000
    N2288    N        0.42366    0.51727    0.26517    1.000
    N2289    N        0.24633    0.74544    0.23915    1.000
    Si2290   Si       0.24701    0.67525    0.27834    1.000
    N2291    N        0.28770    0.67424    0.26202    1.000
    Si2292   Si       0.36124    0.64750    0.24098    1.000
    N2293    N        0.36174    0.67798    0.27129    1.000
    Si2294   Si       0.24216    0.75082    0.28027    1.000
    Si2295   Si       0.32171    0.68432    0.28640    1.000
    Si2296   Si       0.39972    0.69730    0.27677    1.000
    N2297    N        0.46233    0.64471    0.26202    1.000
    N2298    N        0.42495    0.69627    0.24231    1.000
    N2299    N        0.29796    0.58982    0.31322    1.000
    Si2300   Si       0.33373    0.61627    0.30848    1.000
    N2301    N        0.27736    0.52136    0.31434    1.000
    Si2302   Si       0.25519    0.60224    0.30916    1.000
    N2303    N        0.35020    0.54528    0.30172    1.000
    Si2304   Si       0.30514    0.54997    0.29713    1.000
    N2305    N        0.47101    0.55632    0.30012    1.000
    Si2306   Si       0.40846    0.59491    0.30415    1.000
    N2307    N        0.37468    0.61439    0.32633    1.000
    Si2308   Si       0.44940    0.54366    0.33495    1.000
    N2309    N        0.44227    0.61647    0.32234    1.000
    N2310    N        0.40896    0.55543    0.32282    1.000
    Si2311   Si       0.37152    0.54271    0.34069    1.000
    N2312    N        0.31724    0.65584    0.32055    1.000
    N2313    N        0.32075    0.72618    0.29986    1.000
    Si2314   Si       0.35702    0.74090    0.32677    1.000
    Si2315   Si       0.26026    0.71038    0.34334    1.000
    N2316    N        0.24687    0.71366    0.30216    1.000
    Si2317   Si       0.40597    0.69608    0.34879    1.000
    N2318    N        0.36418    0.70016    0.34665    1.000
    N2319    N        0.42437    0.73406    0.34993    1.000
    Si2320   Si       0.42605    0.75405    0.31105    1.000
    N2321    N        0.46604    0.74628    0.29706    1.000
    N2322    N        0.42030    0.67776    0.31195    1.000
    N2323    N        0.39012    0.73627    0.29691    1.000
    Si2324   Si       0.45382    0.65375    0.30385    1.000
    N2325    N        0.25564    0.54047    0.37796    1.000
    Si2326   Si       0.26060    0.58348    0.38312    1.000
    N2327    N        0.29891    0.59400    0.39787    1.000
    N2328    N        0.35713    0.57204    0.36887    1.000
    Si2329   Si       0.33184    0.56318    0.40268    1.000
    N2330    N        0.24418    0.60840    0.35168    1.000
    Si2331   Si       0.37561    0.61187    0.36970    1.000
    N2332    N        0.46477    0.56876    0.36813    1.000
    N2333    N        0.40366    0.61204    0.40260    1.000
    Si2334   Si       0.47241    0.60710    0.35470    1.000
    Si2335   Si       0.46990    0.55014    0.40487    1.000
    Si2336   Si       0.32936    0.67442    0.35588    1.000
    N2337    N        0.29582    0.70131    0.36734    1.000
    N2338    N        0.34836    0.64421    0.38624    1.000
    Si2339   Si       0.27678    0.72717    0.39869    1.000
    N2340    N        0.25580    0.74786    0.36363    1.000
    Si2341   Si       0.34425    0.74522    0.41098    1.000
    N2342    N        0.35550    0.75977    0.36853    1.000
    Si2343   Si       0.45849    0.74888    0.36894    1.000
    N2344    N        0.47002    0.63964    0.38417    1.000
    N2345    N        0.41005    0.67474    0.38643    1.000
    Si2346   Si       0.43338    0.64217    0.40386    1.000
    N2347    N        0.44947    0.75169    0.41112    1.000
    N2348    N        0.34790    0.58831    0.43748    1.000
    Si2349   Si       0.29821    0.51569    0.44932    1.000
    Si2350   Si       0.32239    0.62390    0.41679    1.000
    N2351    N        0.32489    0.52398    0.41387    1.000
    N2352    N        0.25595    0.50808    0.43764    1.000
    Si2353   Si       0.38752    0.60695    0.44168    1.000
    N2354    N        0.47309    0.58085    0.43682    1.000
    N2355    N        0.43529    0.52312    0.41052    1.000
    Si2356   Si       0.26535    0.67225    0.44659    1.000
    N2357    N        0.30587    0.65205    0.44132    1.000
    N2358    N        0.34742    0.70429    0.42655    1.000
    Si2359   Si       0.32575    0.68828    0.46152    1.000
    N2360    N        0.24919    0.70206    0.42009    1.000
    N2361    N        0.30335    0.75414    0.41917    1.000
    Si2362   Si       0.37308    0.67270    0.41083    1.000
    N2363    N        0.41335    0.70528    0.44911    1.000
    Si2364   Si       0.45342    0.72040    0.43934    1.000
    N2365    N        0.38211    0.64955    0.44833    1.000
    N2366    N        0.44731    0.64743    0.44613    1.000
    N2367    N        0.34485    0.58862    0.51043    1.000
    Si2368   Si       0.26884    0.56383    0.50116    1.000
    Si2369   Si       0.34008    0.56481    0.47515    1.000
    N2370    N        0.29831    0.55204    0.47151    1.000
    N2371    N        0.23769    0.59460    0.49990    1.000
    N2372    N        0.36454    0.53201    0.48494    1.000
    Si2373   Si       0.40263    0.53608    0.50567    1.000
    N2374    N        0.47199    0.60224    0.49874    1.000
    Si2375   Si       0.38499    0.60097    0.51559    1.000
    N2376    N        0.43711    0.53532    0.47906    1.000
    N2377    N        0.40713    0.59414    0.47679    1.000
    Si2378   Si       0.44783    0.57767    0.47270    1.000
    N2379    N        0.35233    0.70864    0.49275    1.000
    N2380    N        0.28634    0.69524    0.47766    1.000
    Si2381   Si       0.27860    0.67924    0.51796    1.000
    N2382    N        0.31637    0.65779    0.52597    1.000
    N2383    N        0.46737    0.72973    0.47906    1.000
    N2384    N        0.42998    0.67931    0.51214    1.000
    Si2385   Si       0.44281    0.73941    0.51650    1.000
    N2386    N        0.40545    0.75109    0.49624    1.000
    Si2387   Si       0.48393    0.63600    0.47155    1.000
    Si2388   Si       0.41642    0.66831    0.47074    1.000
    Si2389   Si       0.38094    0.72995    0.46530    1.000
    Si2390   Si       0.32991    0.57268    0.54915    1.000
    N2391    N        0.28614    0.57251    0.53969    1.000
    N2392    N        0.33469    0.53631    0.56894    1.000
    N2393    N        0.33883    0.60762    0.57752    1.000
    Si2394   Si       0.26020    0.56554    0.57358    1.000
    N2395    N        0.25894    0.52238    0.58274    1.000
    Si2396   Si       0.42072    0.56469    0.57340    1.000
    N2397    N        0.43934    0.60429    0.57107    1.000
    Si2398   Si       0.47385    0.60716    0.54323    1.000
    N2399    N        0.39979    0.56525    0.53647    1.000
    N2400    N        0.45046    0.53248    0.57169    1.000
    Si2401   Si       0.34654    0.64406    0.55320    1.000
    Si2402   Si       0.26382    0.74657    0.54229    1.000
    N2403    N        0.29039    0.71331    0.54068    1.000
    N2404    N        0.35519    0.68532    0.57001    1.000
    N2405    N        0.34710    0.74846    0.54769    1.000
    Si2406   Si       0.33404    0.70796    0.53398    1.000
    Si2407   Si       0.32195    0.75682    0.58007    1.000
    N2408    N        0.41436    0.73094    0.55218    1.000
    Si2409   Si       0.47093    0.67791    0.52871    1.000
    N2410    N        0.38553    0.64054    0.53324    1.000
    Si2411   Si       0.44360    0.71655    0.58002    1.000
    N2412    N        0.42870    0.67488    0.57882    1.000
    N2413    N        0.47517    0.71609    0.54893    1.000
    Si2414   Si       0.40053    0.67916    0.54499    1.000
    N2415    N        0.27345    0.59226    0.60361    1.000
    Si2416   Si       0.30820    0.61707    0.60797    1.000
    N2417    N        0.33588    0.60370    0.63947    1.000
    Si2418   Si       0.25178    0.59115    0.64126    1.000
    Si2419   Si       0.35935    0.52533    0.60366    1.000
    Si2420   Si       0.36838    0.60200    0.60987    1.000
    N2421    N        0.38997    0.56405    0.60534    1.000
    N2422    N        0.43256    0.52472    0.63989    1.000
    N2423    N        0.45909    0.63308    0.63019    1.000
    N2424    N        0.31740    0.72724    0.61006    1.000
    Si2425   Si       0.26278    0.66737    0.62308    1.000
    N2426    N        0.30146    0.65936    0.60891    1.000
    Si2427   Si       0.33359    0.68892    0.60850    1.000
    Si2428   Si       0.29100    0.73725    0.64219    1.000
    N2429    N        0.39318    0.63635    0.62041    1.000
    Si2430   Si       0.43128    0.63585    0.59784    1.000
    N2431    N        0.45170    0.73870    0.61459    1.000
    N2432    N        0.37698    0.75331    0.63985    1.000
    Si2433   Si       0.41927    0.73631    0.64428    1.000
    N2434    N        0.27874    0.57632    0.67073    1.000
    Si2435   Si       0.31836    0.59562    0.67832    1.000
    Si2436   Si       0.27579    0.54217    0.69801    1.000
    N2437    N        0.29880    0.50970    0.68772    1.000
    N2438    N        0.36324    0.52514    0.64810    1.000
    N2439    N        0.47357    0.57411    0.66141    1.000
    N2440    N        0.40576    0.58573    0.66873    1.000
    Si2441   Si       0.47075    0.53142    0.66213    1.000
    Si2442   Si       0.44389    0.60625    0.66185    1.000
    Si2443   Si       0.38139    0.60283    0.70253    1.000
    N2444    N        0.47645    0.52333    0.70533    1.000
    Si2445   Si       0.39814    0.55020    0.64719    1.000
    N2446    N        0.24651    0.63341    0.64944    1.000
    N2447    N        0.30124    0.63544    0.68821    1.000
    Si2448   Si       0.25831    0.63953    0.69221    1.000
    N2449    N        0.31893    0.74735    0.67624    1.000
    Si2450   Si       0.35552    0.72873    0.66830    1.000
    Si2451   Si       0.33188    0.66481    0.68741    1.000
    N2452    N        0.34887    0.68744    0.65138    1.000
    N2453    N        0.26268    0.70385    0.64703    1.000
    N2454    N        0.37023    0.64397    0.69281    1.000
    N2455    N        0.48471    0.68337    0.67110    1.000
    N2456    N        0.41621    0.69449    0.65826    1.000
    Si2457   Si       0.44564    0.67874    0.68810    1.000
    Si2458   Si       0.38564    0.66358    0.65496    1.000
    N2459    N        0.44343    0.63504    0.69500    1.000
    N2460    N        0.43060    0.75332    0.68165    1.000
    N2461    N        0.28907    0.55131    0.74012    1.000
    Si2462   Si       0.33146    0.56137    0.74593    1.000
    N2463    N        0.34503    0.58018    0.70784    1.000
    N2464    N        0.24282    0.61572    0.72696    1.000
    Si2465   Si       0.44592    0.61532    0.73369    1.000
    N2466    N        0.40546    0.59824    0.73898    1.000
    N2467    N        0.48359    0.59425    0.72945    1.000
    N2468    N        0.41251    0.51083    0.73171    1.000
    N2469    N        0.24750    0.67931    0.70904    1.000
    Si2470   Si       0.35434    0.70577    0.74287    1.000
    N2471    N        0.31947    0.68734    0.72496    1.000
    Si2472   Si       0.27629    0.69396    0.73967    1.000
    N2473    N        0.25618    0.72894    0.75618    1.000
    N2474    N        0.43578    0.69709    0.72606    1.000
    N2475    N        0.37476    0.72261    0.70742    1.000
    Si2476   Si       0.41470    0.73510    0.71676    1.000
    N2477    N        0.28130    0.60131    0.78623    1.000
    Si2478   Si       0.32000    0.60919    0.80474    1.000
    Si2479   Si       0.26932    0.55941    0.77962    1.000
    N2480    N        0.34622    0.58948    0.77581    1.000
    N2481    N        0.30479    0.54413    0.80542    1.000
    Si2482   Si       0.25188    0.62883    0.76841    1.000
    N2483    N        0.24421    0.55130    0.81667    1.000
    Si2484   Si       0.32626    0.50964    0.79591    1.000
    N2485    N        0.35099    0.52490    0.76044    1.000
    Si2486   Si       0.38817    0.59189    0.77784    1.000
    N2487    N        0.40527    0.55382    0.79187    1.000
    N2488    N        0.39100    0.62633    0.80706    1.000
    Si2489   Si       0.39389    0.51696    0.76916    1.000
    N2490    N        0.47275    0.52601    0.81619    1.000
    N2491    N        0.27310    0.66591    0.77223    1.000
    Si2492   Si       0.25573    0.73799    0.79761    1.000
    N2493    N        0.32824    0.65301    0.80604    1.000
    Si2494   Si       0.28785    0.67114    0.81263    1.000
    N2495    N        0.34251    0.74153    0.76399    1.000
    N2496    N        0.45058    0.64276    0.76561    1.000
    N2497    N        0.44637    0.69600    0.80206    1.000
    Si2498   Si       0.37049    0.66468    0.80664    1.000
    N2499    N        0.38226    0.68339    0.76947    1.000
    Si2500   Si       0.42812    0.68092    0.76633    1.000
    Si2501   Si       0.48823    0.64058    0.78824    1.000
    N2502    N        0.31398    0.59588    0.84903    1.000
    Si2503   Si       0.28243    0.55727    0.84278    1.000
    N2504    N        0.29263    0.52175    0.86529    1.000
    Si2505   Si       0.28185    0.61997    0.87240    1.000
    N2506    N        0.25977    0.58198    0.87230    1.000
    Si2507   Si       0.33623    0.51125    0.86862    1.000
    Si2508   Si       0.43327    0.54584    0.82202    1.000
    N2509    N        0.42128    0.51556    0.85377    1.000
    Si2510   Si       0.41105    0.61472    0.84402    1.000
    N2511    N        0.44067    0.58236    0.84395    1.000
    N2512    N        0.37769    0.61352    0.87084    1.000
    N2513    N        0.36216    0.54523    0.87941    1.000
    N2514    N        0.26694    0.64648    0.84095    1.000
    Si2515   Si       0.30149    0.73242    0.85854    1.000
    N2516    N        0.33657    0.74929    0.83715    1.000
    N2517    N        0.28253    0.71343    0.82359    1.000
    Si2518   Si       0.36331    0.70163    0.87850    1.000
    Si2519   Si       0.42486    0.68791    0.83932    1.000
    N2520    N        0.44094    0.71364    0.87072    1.000
    Si2521   Si       0.47871    0.64391    0.86324    1.000
    N2522    N        0.38199    0.68964    0.84089    1.000
    N2523    N        0.43761    0.64832    0.85181    1.000
    N2524    N        0.33838    0.59943    0.91917    1.000
    N2525    N        0.24789    0.51427    0.91619    1.000
    Si2526   Si       0.34740    0.58514    0.87731    1.000
    N2527    N        0.43167    0.56265    0.90767    1.000
    Si2528   Si       0.40460    0.53246    0.89003    1.000
    Si2529   Si       0.37307    0.62738    0.91281    1.000
    Si2530   Si       0.46465    0.57403    0.88314    1.000
    Si2531   Si       0.24575    0.74474    0.90320    1.000
    N2532    N        0.27821    0.64407    0.90907    1.000
    N2533    N        0.25687    0.70745    0.92100    1.000
    Si2534   Si       0.29572    0.68651    0.91816    1.000
    N2535    N        0.31941    0.70016    0.88302    1.000
    N2536    N        0.48289    0.66191    0.90459    1.000
    Si2537   Si       0.47172    0.70470    0.90269    1.000
    N2538    N        0.37482    0.67102    0.90859    1.000
    N2539    N        0.37758    0.74242    0.89161    1.000
    Si2540   Si       0.41825    0.75084    0.87910    1.000
    N2541    N        0.28057    0.61214    0.96699    1.000
    Si2542   Si       0.31365    0.58719    0.95361    1.000
    Si2543   Si       0.25985    0.53242    0.95419    1.000
    N2544    N        0.29806    0.54872    0.94976    1.000
    N2545    N        0.33308    0.59626    0.99278    1.000
    Si2546   Si       0.25114    0.62989    0.94247    1.000
    N2547    N        0.38865    0.55026    0.96485    1.000
    N2548    N        0.45621    0.57273    0.97247    1.000
    Si2549   Si       0.41992    0.57559    0.94842    1.000
    N2550    N        0.40340    0.61365    0.94111    1.000
    N2551    N        0.32529    0.69453    0.95124    1.000
    Si2552   Si       0.31639    0.70061    0.99208    1.000
    Si2553   Si       0.42905    0.73075    0.96815    1.000
    N2554    N        0.45389    0.70452    0.94350    1.000
    Si2555   Si       0.41294    0.63488    0.97777    1.000
    N2556    N        0.38774    0.72902    0.95487    1.000
    N2557    N        0.45525    0.63822    0.97978    1.000
    N2558    N        0.38764    0.66958    0.98131    1.000
    Si2559   Si       0.36940    0.69137    0.94915    1.000
    Si2560   Si       0.47314    0.66797    0.95432    1.000
    N2561    N        0.26045    0.85322    0.02774    1.000
    Si2562   Si       0.34180    0.78219    0.04462    1.000
    N2563    N        0.35193    0.78904    0.00313    1.000
    N2564    N        0.41886    0.81081    0.01892    1.000
    N2565    N        0.47340    0.76685    0.03070    1.000
    Si2566   Si       0.45583    0.79329    0.00153    1.000
    N2567    N        0.31379    0.89001    0.04107    1.000
    N2568    N        0.33156    0.96295    0.03824    1.000
    Si2569   Si       0.24471    0.93940    0.00631    1.000
    Si2570   Si       0.31112    0.97230    0.00140    1.000
    N2571    N        0.24517    0.97726    0.02776    1.000
    N2572    N        0.35469    0.91732    0.99292    1.000
    Si2573   Si       0.31488    0.90306    0.99966    1.000
    Si2574   Si       0.42106    0.99358    0.99982    1.000
    Si2575   Si       0.37138    0.93807    0.02926    1.000
    Si2576   Si       0.44648    0.92183    0.00420    1.000
    Si2577   Si       0.47352    0.00176    0.04964    1.000
    N2578    N        0.47822    0.92182    0.03514    1.000
    N2579    N        0.39569    0.97425    0.02943    1.000
    N2580    N        0.40839    0.90742    0.02146    1.000
    Si2581   Si       0.28840    0.79125    0.08354    1.000
    N2582    N        0.31649    0.86690    0.09792    1.000
    N2583    N        0.26627    0.82994    0.08850    1.000
    Si2584   Si       0.35032    0.83561    0.09054    1.000
    N2585    N        0.25551    0.76700    0.06563    1.000
    N2586    N        0.31997    0.81594    0.06152    1.000
    Si2587   Si       0.29278    0.85081    0.06005    1.000
    N2588    N        0.43180    0.81685    0.09781    1.000
    N2589    N        0.37846    0.78207    0.06955    1.000
    Si2590   Si       0.47451    0.82210    0.10167    1.000
    N2591    N        0.38073    0.84946    0.06253    1.000
    Si2592   Si       0.40779    0.81331    0.06195    1.000
    N2593    N        0.24426    0.95441    0.09474    1.000
    Si2594   Si       0.25186    0.98814    0.06918    1.000
    Si2595   Si       0.32718    0.90416    0.07976    1.000
    Si2596   Si       0.32668    0.97602    0.07868    1.000
    N2597    N        0.31623    0.94065    0.10066    1.000
    N2598    N        0.29041    0.00076    0.08345    1.000
    N2599    N        0.36806    0.98111    0.09735    1.000
    N2600    N        0.48267    0.92079    0.11243    1.000
    Si2601   Si       0.39980    0.88876    0.05878    1.000
    Si2602   Si       0.47704    0.90041    0.07183    1.000
    N2603    N        0.43634    0.88874    0.08187    1.000
    N2604    N        0.36928    0.91539    0.07209    1.000
    Si2605   Si       0.37214    0.93996    0.11089    1.000
    N2606    N        0.44007    0.99113    0.07723    1.000
    Si2607   Si       0.39918    0.99576    0.06618    1.000
    N2608    N        0.31339    0.85844    0.15860    1.000
    Si2609   Si       0.29107    0.84250    0.12662    1.000
    N2610    N        0.30145    0.79826    0.12557    1.000
    Si2611   Si       0.34874    0.83428    0.16688    1.000
    Si2612   Si       0.29741    0.78097    0.16604    1.000
    N2613    N        0.24600    0.85099    0.14534    1.000
    N2614    N        0.37056    0.82707    0.12867    1.000
    Si2615   Si       0.41050    0.80735    0.13384    1.000
    N2616    N        0.47757    0.85752    0.13020    1.000
    Si2617   Si       0.45431    0.85389    0.16711    1.000
    N2618    N        0.39694    0.76624    0.13594    1.000
    N2619    N        0.43278    0.81666    0.17112    1.000
    N2620    N        0.28333    0.98280    0.14718    1.000
    N2621    N        0.27846    0.91130    0.14336    1.000
    Si2622   Si       0.31899    0.90114    0.15725    1.000
    Si2623   Si       0.27978    0.94876    0.12043    1.000
    N2624    N        0.36040    0.90954    0.14130    1.000
    Si2625   Si       0.24116    0.89417    0.15802    1.000
    N2626    N        0.42623    0.88844    0.15843    1.000
    Si2627   Si       0.43775    0.98241    0.11976    1.000
    N2628    N        0.41664    0.94343    0.12011    1.000
    N2629    N        0.47698    0.98145    0.13906    1.000
    Si2630   Si       0.44029    0.90772    0.12205    1.000
    Si2631   Si       0.38712    0.89789    0.17372    1.000
    Si2632   Si       0.35218    0.77265    0.21523    1.000
    N2633    N        0.27155    0.80294    0.19462    1.000
    N2634    N        0.33572    0.79550    0.18201    1.000
    Si2635   Si       0.24564    0.86899    0.23211    1.000
    N2636    N        0.37319    0.85989    0.19325    1.000
    Si2637   Si       0.42712    0.79121    0.20741    1.000
    N2638    N        0.47760    0.87195    0.20080    1.000
    N2639    N        0.38701    0.79913    0.22308    1.000
    Si2640   Si       0.28090    0.92509    0.21352    1.000
    N2641    N        0.31993    0.91841    0.19662    1.000
    Si2642   Si       0.27216    0.99557    0.18706    1.000
    N2643    N        0.27627    0.96804    0.22074    1.000
    Si2644   Si       0.35163    0.93139    0.22489    1.000
    N2645    N        0.24379    0.90330    0.19981    1.000
    N2646    N        0.38837    0.93233    0.20207    1.000
    Si2647   Si       0.41774    0.95348    0.22674    1.000
    N2648    N        0.45562    0.95338    0.20454    1.000
    Si2649   Si       0.48850    0.97223    0.18155    1.000
    Si2650   Si       0.47643    0.91488    0.20887    1.000
    N2651    N        0.26341    0.83340    0.25593    1.000
    N2652    N        0.31938    0.77675    0.24353    1.000
    N2653    N        0.32689    0.84360    0.23649    1.000
    Si2654   Si       0.31487    0.76867    0.28512    1.000
    Si2655   Si       0.31945    0.87708    0.26419    1.000
    Si2656   Si       0.29554    0.81259    0.23135    1.000
    N2657    N        0.37871    0.84341    0.27188    1.000
    Si2658   Si       0.46686    0.83697    0.26378    1.000
    N2659    N        0.45447    0.79801    0.24129    1.000
    N2660    N        0.44145    0.86908    0.27503    1.000
    Si2661   Si       0.47499    0.76527    0.25910    1.000
    Si2662   Si       0.37081    0.83991    0.23100    1.000
    Si2663   Si       0.25067    0.91104    0.27704    1.000
    N2664    N        0.28323    0.89896    0.24880    1.000
    N2665    N        0.34389    0.96846    0.24322    1.000
    Si2666   Si       0.31027    0.99538    0.23690    1.000
    N2667    N        0.35729    0.90096    0.25622    1.000
    N2668    N        0.24810    0.95319    0.28344    1.000
    Si2669   Si       0.24377    0.98279    0.25297    1.000
    N2670    N        0.48818    0.91801    0.25295    1.000
    Si2671   Si       0.39434    0.88854    0.27724    1.000
    N2672    N        0.41829    0.92578    0.26456    1.000
    Si2673   Si       0.45627    0.90904    0.27937    1.000
    Si2674   Si       0.37361    0.99817    0.25863    1.000
    N2675    N        0.40859    0.99379    0.23414    1.000
    N2676    N        0.34758    0.78473    0.30640    1.000
    Si2677   Si       0.26917    0.78262    0.33881    1.000
    N2678    N        0.27280    0.77890    0.29609    1.000
    Si2679   Si       0.35125    0.87274    0.33554    1.000
    N2680    N        0.24855    0.82307    0.33491    1.000
    N2681    N        0.32079    0.88180    0.30741    1.000
    Si2682   Si       0.23945    0.81536    0.29035    1.000
    N2683    N        0.36885    0.83193    0.34193    1.000
    Si2684   Si       0.37911    0.81492    0.30222    1.000
    N2685    N        0.41690    0.79676    0.31032    1.000
    Si2686   Si       0.45251    0.81876    0.33027    1.000
    N2687    N        0.48089    0.81911    0.30002    1.000
    N2688    N        0.25550    0.88705    0.31057    1.000
    Si2689   Si       0.25177    0.95615    0.32703    1.000
    N2690    N        0.26047    0.99838    0.33439    1.000
    Si2691   Si       0.28755    0.89285    0.33866    1.000
    N2692    N        0.28830    0.93693    0.34219    1.000
    N2693    N        0.38968    0.89299    0.32181    1.000
    N2694    N        0.38299    0.99528    0.30138    1.000
    Si2695   Si       0.38415    0.99070    0.34246    1.000
    Si2696   Si       0.42735    0.89496    0.34358    1.000
    N2697    N        0.46074    0.91355    0.32163    1.000
    Si2698   Si       0.27651    0.83806    0.36967    1.000
    N2699    N        0.31584    0.87033    0.36602    1.000
    Si2700   Si       0.33875    0.85779    0.40052    1.000
    N2701    N        0.30191    0.80153    0.35591    1.000
    N2702    N        0.25221    0.87511    0.37032    1.000
    Si2703   Si       0.34432    0.80002    0.35964    1.000
    N2704    N        0.34057    0.81524    0.40518    1.000
    Si2705   Si       0.40091    0.83791    0.37388    1.000
    N2706    N        0.46271    0.79181    0.36338    1.000
    N2707    N        0.37869    0.86988    0.39102    1.000
    N2708    N        0.41079    0.81030    0.40704    1.000
    N2709    N        0.43652    0.85424    0.35193    1.000
    Si2710   Si       0.45011    0.79563    0.40663    1.000
    N2711    N        0.30765    0.00202    0.38187    1.000
    Si2712   Si       0.31455    0.95960    0.36961    1.000
    N2713    N        0.25077    0.97838    0.40084    1.000
    N2714    N        0.35453    0.95998    0.35531    1.000
    Si2715   Si       0.46392    0.00370    0.35994    1.000
    N2716    N        0.47510    0.96236    0.36821    1.000
    N2717    N        0.42362    0.91865    0.37995    1.000
    N2718    N        0.42038    0.99428    0.36971    1.000
    Si2719   Si       0.44791    0.94829    0.40012    1.000
    Si2720   Si       0.30352    0.79844    0.42476    1.000
    N2721    N        0.32224    0.87702    0.43648    1.000
    N2722    N        0.26899    0.81900    0.40865    1.000
    N2723    N        0.36803    0.76348    0.44157    1.000
    Si2724   Si       0.37741    0.80427    0.43356    1.000
    N2725    N        0.47662    0.80832    0.43956    1.000
    N2726    N        0.37546    0.83729    0.46181    1.000
    N2727    N        0.29734    0.00169    0.44614    1.000
    Si2728   Si       0.27716    0.96512    0.43147    1.000
    Si2729   Si       0.32921    0.91931    0.43742    1.000
    N2730    N        0.25218    0.94296    0.45907    1.000
    N2731    N        0.30786    0.94315    0.40919    1.000
    N2732    N        0.47679    0.92517    0.42363    1.000
    N2733    N        0.36827    0.99859    0.42014    1.000
    N2734    N        0.42716    0.88231    0.44328    1.000
    N2735    N        0.42977    0.96719    0.43460    1.000
    Si2736   Si       0.38727    0.96598    0.44101    1.000
    N2737    N        0.37187    0.92803    0.43030    1.000
    Si2738   Si       0.40154    0.89986    0.41287    1.000
    Si2739   Si       0.46438    0.90059    0.45585    1.000
    Si2740   Si       0.27486    0.80747    0.49472    1.000
    N2741    N        0.33386    0.86981    0.50536    1.000
    N2742    N        0.25753    0.76834    0.50628    1.000
    Si2743   Si       0.33336    0.84736    0.46937    1.000
    N2744    N        0.30689    0.81284    0.46624    1.000
    Si2745   Si       0.40928    0.85945    0.47567    1.000
    N2746    N        0.44115    0.83583    0.49383    1.000
    Si2747   Si       0.48047    0.83387    0.47552    1.000
    N2748    N        0.26849    0.89252    0.51102    1.000
    Si2749   Si       0.34193    0.95806    0.50184    1.000
    Si2750   Si       0.27655    0.93093    0.49421    1.000
    N2751    N        0.31497    0.93576    0.47513    1.000
    N2752    N        0.32162    0.99630    0.51385    1.000
    Si2753   Si       0.45549    0.96788    0.46820    1.000
    N2754    N        0.40360    0.89028    0.50610    1.000
    N2755    N        0.44440    0.99710    0.50101    1.000
    N2756    N        0.45498    0.92969    0.48814    1.000
    N2757    N        0.37755    0.96965    0.48118    1.000
    Si2758   Si       0.40325    0.98966    0.51116    1.000
    Si2759   Si       0.29732    0.81345    0.57078    1.000
    N2760    N        0.28083    0.77131    0.57322    1.000
    Si2761   Si       0.29945    0.86827    0.53072    1.000
    N2762    N        0.29050    0.82631    0.53059    1.000
    N2763    N        0.31027    0.87850    0.57176    1.000
    N2764    N        0.37366    0.86740    0.56240    1.000
    N2765    N        0.43911    0.83963    0.56521    1.000
    N2766    N        0.39676    0.80030    0.54224    1.000
    Si2767   Si       0.39536    0.83102    0.57243    1.000
    Si2768   Si       0.43664    0.81497    0.53032    1.000
    Si2769   Si       0.38562    0.75933    0.53380    1.000
    N2770    N        0.46111    0.78046    0.52494    1.000
    N2771    N        0.35813    0.99527    0.57444    1.000
    Si2772   Si       0.28317    0.99915    0.53677    1.000
    N2773    N        0.34813    0.92968    0.53442    1.000
    N2774    N        0.26490    0.96018    0.52838    1.000
    Si2775   Si       0.36594    0.89033    0.52564    1.000
    Si2776   Si       0.42918    0.92136    0.52311    1.000
    Si2777   Si       0.37111    0.95464    0.56462    1.000
    Si2778   Si       0.47049    0.93952    0.57799    1.000
    N2779    N        0.40691    0.95553    0.53907    1.000
    N2780    N        0.45135    0.90518    0.55790    1.000
    Si2781   Si       0.27995    0.87249    0.60134    1.000
    Si2782   Si       0.25467    0.78731    0.60347    1.000
    N2783    N        0.26432    0.83071    0.59388    1.000
    N2784    N        0.35740    0.87189    0.62857    1.000
    N2785    N        0.26720    0.77354    0.64083    1.000
    Si2786   Si       0.35984    0.79374    0.62716    1.000
    N2787    N        0.33333    0.79790    0.59237    1.000
    N2788    N        0.29197    0.87848    0.64058    1.000
    N2789    N        0.39228    0.81883    0.61467    1.000
    Si2790   Si       0.39689    0.85534    0.63834    1.000
    Si2791   Si       0.45625    0.87139    0.58681    1.000
    N2792    N        0.42854    0.87895    0.62109    1.000
    N2793    N        0.25908    0.94365    0.63193    1.000
    Si2794   Si       0.34851    0.89010    0.58960    1.000
    Si2795   Si       0.36320    0.94281    0.64066    1.000
    N2796    N        0.35718    0.98729    0.64408    1.000
    N2797    N        0.36407    0.92999    0.60058    1.000
    N2798    N        0.45114    0.97139    0.60122    1.000
    N2799    N        0.48291    0.91608    0.61260    1.000
    Si2800   Si       0.47156    0.97217    0.64045    1.000
    Si2801   Si       0.32012    0.78840    0.69039    1.000
    N2802    N        0.33415    0.81293    0.65686    1.000
    Si2803   Si       0.32676    0.85550    0.65324    1.000
    N2804    N        0.33871    0.86947    0.69343    1.000
    Si2805   Si       0.24871    0.78607    0.67767    1.000
    N2806    N        0.28042    0.80049    0.70368    1.000
    N2807    N        0.40244    0.84571    0.68174    1.000
    N2808    N        0.46114    0.81239    0.67077    1.000
    Si2809   Si       0.46641    0.77310    0.68715    1.000
    Si2810   Si       0.44563    0.84391    0.69393    1.000
    N2811    N        0.47034    0.87624    0.67622    1.000
    Si2812   Si       0.28562    0.91810    0.65713    1.000
    Si2813   Si       0.32446    0.98101    0.67188    1.000
    N2814    N        0.32348    0.93721    0.66309    1.000
    N2815    N        0.28560    0.99826    0.65883    1.000
    N2816    N        0.26292    0.91834    0.69522    1.000
    Si2817   Si       0.34597    0.91139    0.69289    1.000
    Si2818   Si       0.24629    0.98296    0.64795    1.000
    Si2819   Si       0.41850    0.94887    0.69178    1.000
    N2820    N        0.44927    0.94228    0.66335    1.000
    N2821    N        0.38339    0.92837    0.67841    1.000
    Si2822   Si       0.45549    0.90421    0.64445    1.000
    N2823    N        0.40982    0.99107    0.69964    1.000
    Si2824   Si       0.25709    0.81993    0.73387    1.000
    N2825    N        0.34751    0.80267    0.72236    1.000
    Si2826   Si       0.36356    0.77766    0.75489    1.000
    Si2827   Si       0.36856    0.84244    0.71174    1.000
    N2828    N        0.44101    0.82988    0.73538    1.000
    N2829    N        0.38401    0.86508    0.74520    1.000
    N2830    N        0.47127    0.77030    0.72903    1.000
    N2831    N        0.40674    0.76679    0.74793    1.000
    Si2832   Si       0.44173    0.78999    0.75682    1.000
    N2833    N        0.24227    0.96587    0.74332    1.000
    N2834    N        0.33092    0.99018    0.71294    1.000
    N2835    N        0.34337    0.92435    0.73465    1.000
    Si2836   Si       0.33829    0.96647    0.74957    1.000
    N2837    N        0.26711    0.90336    0.75867    1.000
    Si2838   Si       0.24465    0.89017    0.72462    1.000
    N2839    N        0.42821    0.94524    0.73536    1.000
    Si2840   Si       0.41165    0.98564    0.74299    1.000
    N2841    N        0.28200    0.77190    0.79622    1.000
    N2842    N        0.34987    0.79840    0.79347    1.000
    N2843    N        0.32702    0.86726    0.78067    1.000
    Si2844   Si       0.33916    0.83556    0.80925    1.000
    Si2845   Si       0.26975    0.81183    0.80430    1.000
    N2846    N        0.26943    0.83880    0.77063    1.000
    Si2847   Si       0.32413    0.76127    0.79840    1.000
    Si2848   Si       0.28485    0.87425    0.78991    1.000
    N2849    N        0.41212    0.83631    0.80256    1.000
    N2850    N        0.45388    0.78479    0.79966    1.000
    Si2851   Si       0.39969    0.87539    0.81738    1.000
    Si2852   Si       0.42227    0.85537    0.76388    1.000
    Si2853   Si       0.26861    0.94588    0.77188    1.000
    N2854    N        0.30154    0.97189    0.77233    1.000
    N2855    N        0.24541    0.94652    0.81121    1.000
    N2856    N        0.30353    0.90895    0.82189    1.000
    Si2857   Si       0.35583    0.89407    0.76238    1.000
    Si2858   Si       0.39032    0.95187    0.80090    1.000
    N2859    N        0.37654    0.97554    0.76711    1.000
    N2860    N        0.43357    0.95697    0.79799    1.000
    N2861    N        0.44011    0.88941    0.78420    1.000
    N2862    N        0.37589    0.90884    0.79938    1.000
    Si2863   Si       0.47868    0.88889    0.80547    1.000
    Si2864   Si       0.44996    0.92938    0.76892    1.000
    Si2865   Si       0.45108    0.99943    0.80266    1.000
    N2866    N        0.29888    0.83509    0.82604    1.000
    N2867    N        0.36013    0.85905    0.83920    1.000
    Si2868   Si       0.35019    0.84627    0.87973    1.000
    Si2869   Si       0.36294    0.77344    0.86175    1.000
    N2870    N        0.25011    0.88082    0.82032    1.000
    N2871    N        0.40508    0.77892    0.84943    1.000
    N2872    N        0.45187    0.82902    0.86144    1.000
    Si2873   Si       0.43167    0.80871    0.82882    1.000
    Si2874   Si       0.26372    0.91851    0.83969    1.000
    N2875    N        0.35492    0.92332    0.86486    1.000
    N2876    N        0.28407    0.93540    0.87346    1.000
    Si2877   Si       0.34485    0.90098    0.82937    1.000
    N2878    N        0.23913    0.99167    0.87564    1.000
    N2879    N        0.42317    0.88927    0.85087    1.000
    N2880    N        0.37897    0.97495    0.83769    1.000
    Si2881   Si       0.38297    0.95421    0.87640    1.000
    N2882    N        0.48532    0.91066    0.84264    1.000
    Si2883   Si       0.45062    0.91752    0.86812    1.000
    Si2884   Si       0.30621    0.79054    0.90660    1.000
    N2885    N        0.32165    0.87281    0.89376    1.000
    N2886    N        0.28575    0.82391    0.92330    1.000
    Si2887   Si       0.29554    0.86619    0.92923    1.000
    Si2888   Si       0.24320    0.81906    0.92730    1.000
    N2889    N        0.28184    0.76230    0.88491    1.000
    N2890    N        0.34090    0.80343    0.88313    1.000
    Si2891   Si       0.49134    0.77037    0.88859    1.000
    Si2892   Si       0.36888    0.76150    0.93272    1.000
    N2893    N        0.44209    0.83703    0.92847    1.000
    N2894    N        0.44879    0.77103    0.90315    1.000
    N2895    N        0.38753    0.85426    0.89961    1.000
    Si2896   Si       0.43267    0.85863    0.88604    1.000
    Si2897   Si       0.39794    0.83687    0.93504    1.000
    Si2898   Si       0.46008    0.79817    0.93664    1.000
    N2899    N        0.26546    0.96743    0.93074    1.000
    N2900    N        0.26167    0.89362    0.92587    1.000
    Si2901   Si       0.27640    0.97360    0.88958    1.000
    N2902    N        0.32059    0.92632    0.93159    1.000
    Si2903   Si       0.32144    0.91701    0.88974    1.000
    N2904    N        0.30460    0.00462    0.88216    1.000
    Si2905   Si       0.43606    0.92826    0.93318    1.000
    N2906    N        0.36128    0.97411    0.90894    1.000
    N2907    N        0.42427    0.94448    0.88991    1.000
    Si2908   Si       0.47702    0.99036    0.91301    1.000
    N2909    N        0.47691    0.94928    0.93038    1.000
    N2910    N        0.45948    0.89464    0.90474    1.000
    N2911    N        0.29974    0.87147    0.97309    1.000
    Si2912   Si       0.31466    0.77419    0.98187    1.000
    Si2913   Si       0.27002    0.84134    0.98785    1.000
    N2914    N        0.28598    0.80323    0.99362    1.000
    N2915    N        0.32713    0.77121    0.93960    1.000
    Si2916   Si       0.38573    0.81337    0.98887    1.000
    Si2917   Si       0.46614    0.86131    0.95494    1.000
    N2918    N        0.38652    0.85419    0.97277    1.000
    N2919    N        0.47937    0.82582    0.97673    1.000
    N2920    N        0.44983    0.76839    0.96651    1.000
    N2921    N        0.38921    0.79685    0.94801    1.000
    Si2922   Si       0.27873    0.93000    0.94671    1.000
    N2923    N        0.34335    0.97914    0.97383    1.000
    N2924    N        0.28740    0.93642    0.99095    1.000
    Si2925   Si       0.35698    0.94784    0.94686    1.000
    N2926    N        0.39355    0.92560    0.94586    1.000
    Si2927   Si       0.39299    0.89740    0.98088    1.000
    N2928    N        0.44633    0.96148    0.98750    1.000
    N2929    N        0.44449    0.89746    0.96813    1.000
    Si2930   Si       0.52140    0.02904    0.01398    1.000
    N2931    N        0.53306    0.09967    0.04314    1.000
    N2932    N        0.56026    0.01822    0.04247    1.000
    Si2933   Si       0.52508    0.09935    0.00090    1.000
    N2934    N        0.50087    0.06313    0.99775    1.000
    N2935    N        0.61883    0.02736    0.01722    1.000
    Si2936   Si       0.66095    0.11953    0.01628    1.000
    N2937    N        0.70080    0.10708    0.00884    1.000
    N2938    N        0.72976    0.04493    0.04006    1.000
    N2939    N        0.62719    0.09770    0.99940    1.000
    Si2940   Si       0.49236    0.17016    0.01214    1.000
    N2941    N        0.57980    0.14406    0.02460    1.000
    Si2942   Si       0.52460    0.23964    0.02172    1.000
    N2943    N        0.53004    0.19689    0.01781    1.000
    Si2944   Si       0.57250    0.18591    0.02821    1.000
    N2945    N        0.59942    0.20614    0.99921    1.000
    N2946    N        0.64983    0.20257    0.04908    1.000
    Si2947   Si       0.71478    0.19530    0.03625    1.000
    N2948    N        0.69397    0.21253    0.00028    1.000
    Si2949   Si       0.64960    0.20144    0.00261    1.000
    N2950    N        0.72926    0.23148    0.05564    1.000
    N2951    N        0.60041    0.01979    0.09370    1.000
    Si2952   Si       0.49992    0.07857    0.06195    1.000
    N2953    N        0.49904    0.08676    0.10445    1.000
    N2954    N        0.59963    0.08283    0.06268    1.000
    Si2955   Si       0.53240    0.00814    0.07525    1.000
    Si2956   Si       0.57133    0.11458    0.05889    1.000
    Si2957   Si       0.59607    0.04066    0.05535    1.000
    N2958    N        0.50118    0.03560    0.05695    1.000
    N2959    N        0.66342    0.05352    0.07895    1.000
    Si2960   Si       0.63966    0.08984    0.08085    1.000
    Si2961   Si       0.69926    0.03227    0.06635    1.000
    N2962    N        0.71411    0.03463    0.11040    1.000
    N2963    N        0.65361    0.12530    0.05884    1.000
    Si2964   Si       0.59522    0.23619    0.09657    1.000
    N2965    N        0.56978    0.13760    0.09561    1.000
    Si2966   Si       0.55805    0.17923    0.10264    1.000
    N2967    N        0.57461    0.20396    0.06871    1.000
    N2968    N        0.51454    0.17563    0.10849    1.000
    Si2969   Si       0.64994    0.24520    0.05864    1.000
    N2970    N        0.70075    0.17074    0.07222    1.000
    Si2971   Si       0.65691    0.16783    0.07244    1.000
    Si2972   Si       0.72186    0.14606    0.10106    1.000
    Si2973   Si       0.52370    0.06525    0.13183    1.000
    N2974    N        0.56587    0.07760    0.12731    1.000
    Si2975   Si       0.58971    0.11244    0.12730    1.000
    Si2976   Si       0.57740    0.03545    0.12493    1.000
    N2977    N        0.58794    0.01050    0.15879    1.000
    N2978    N        0.53497    0.02475    0.11521    1.000
    N2979    N        0.51685    0.07087    0.17460    1.000
    N2980    N        0.65782    0.03965    0.16429    1.000
    Si2981   Si       0.67002    0.03616    0.12121    1.000
    N2982    N        0.69837    0.12508    0.13287    1.000
    N2983    N        0.63087    0.10149    0.11963    1.000
    N2984    N        0.56959    0.20567    0.13501    1.000
    N2985    N        0.59686    0.13946    0.16179    1.000
    Si2986   Si       0.55317    0.24518    0.14588    1.000
    Si2987   Si       0.59015    0.18156    0.16804    1.000
    N2988    N        0.50179    0.19766    0.17492    1.000
    Si2989   Si       0.65466    0.20581    0.13921    1.000
    Si2990   Si       0.65504    0.13305    0.13546    1.000
    N2991    N        0.63450    0.23622    0.11637    1.000
    N2992    N        0.69292    0.21926    0.15323    1.000
    N2993    N        0.64761    0.17040    0.11562    1.000
    Si2994   Si       0.72789    0.19632    0.16009    1.000
    N2995    N        0.59211    0.08264    0.20083    1.000
    Si2996   Si       0.54839    0.08010    0.20305    1.000
    Si2997   Si       0.51027    0.01821    0.22497    1.000
    N2998    N        0.54074    0.12021    0.22166    1.000
    Si2999   Si       0.61131    0.05842    0.23145    1.000
    Si3000   Si       0.61719    0.11841    0.19363    1.000
    N3001    N        0.61641    0.01711    0.22147    1.000
    N3002    N        0.69821    0.02908    0.21788    1.000
    Si3003   Si       0.67801    0.06028    0.19760    1.000
    N3004    N        0.70925    0.08842    0.19014    1.000
    N3005    N        0.65704    0.13057    0.17917    1.000
    N3006    N        0.64960    0.07710    0.22785    1.000
    Si3007   Si       0.70173    0.12904    0.17701    1.000
    Si3008   Si       0.62753    0.00985    0.17989    1.000
    N3009    N        0.56377    0.18324    0.20273    1.000
    Si3010   Si       0.53130    0.21011    0.20150    1.000
    N3011    N        0.54929    0.24909    0.18880    1.000
    Si3012   Si       0.56744    0.15164    0.23115    1.000
    N3013    N        0.60969    0.14007    0.23025    1.000
    Si3014   Si       0.69218    0.25629    0.17701    1.000
    N3015    N        0.67665    0.24356    0.21611    1.000
    N3016    N        0.72035    0.16644    0.19030    1.000
    Si3017   Si       0.63698    0.22218    0.21300    1.000
    N3018    N        0.62856    0.20105    0.17553    1.000
    Si3019   Si       0.54730    0.06166    0.27515    1.000
    N3020    N        0.58908    0.06407    0.27131    1.000
    Si3021   Si       0.50391    0.11593    0.24604    1.000
    N3022    N        0.52276    0.09672    0.28226    1.000
    N3023    N        0.53661    0.05198    0.23341    1.000
    N3024    N        0.74025    0.01392    0.26961    1.000
    N3025    N        0.64588    0.02785    0.28622    1.000
    Si3026   Si       0.67078    0.09401    0.26150    1.000
    N3027    N        0.70977    0.07787    0.26821    1.000
    Si3028   Si       0.72678    0.04575    0.24353    1.000
    N3029    N        0.56444    0.16970    0.27289    1.000
    Si3030   Si       0.52527    0.18707    0.27028    1.000
    N3031    N        0.49630    0.15656    0.25842    1.000
    N3032    N        0.51779    0.22009    0.24083    1.000
    N3033    N        0.60768    0.24975    0.23158    1.000
    N3034    N        0.70640    0.20380    0.27965    1.000
    Si3035   Si       0.67895    0.22800    0.25788    1.000
    Si3036   Si       0.63540    0.16007    0.25817    1.000
    N3037    N        0.67370    0.13790    0.25694    1.000
    Si3038   Si       0.70660    0.15921    0.27614    1.000
    N3039    N        0.65748    0.25094    0.28743    1.000
    N3040    N        0.64576    0.19922    0.24915    1.000
    N3041    N        0.53676    0.03034    0.30535    1.000
    N3042    N        0.59806    0.03497    0.33233    1.000
    Si3043   Si       0.52339    0.11359    0.32270    1.000
    Si3044   Si       0.55667    0.04146    0.34297    1.000
    Si3045   Si       0.61929    0.05854    0.30247    1.000
    Si3046   Si       0.72844    0.09816    0.30379    1.000
    N3047    N        0.64707    0.09251    0.29914    1.000
    Si3048   Si       0.65329    0.12930    0.31855    1.000
    N3049    N        0.70347    0.01233    0.32685    1.000
    N3050    N        0.56046    0.13580    0.33556    1.000
    N3051    N        0.51583    0.20165    0.30895    1.000
    Si3052   Si       0.58212    0.16652    0.31239    1.000
    N3053    N        0.59083    0.20286    0.33132    1.000
    Si3054   Si       0.49804    0.18197    0.34107    1.000
    Si3055   Si       0.59463    0.24489    0.34691    1.000
    N3056    N        0.49240    0.14059    0.32878    1.000
    N3057    N        0.62400    0.15586    0.29847    1.000
    N3058    N        0.72208    0.25485    0.32496    1.000
    N3059    N        0.70332    0.13260    0.31359    1.000
    N3060    N        0.56440    0.02968    0.38873    1.000
    Si3061   Si       0.56478    0.11097    0.37148    1.000
    N3062    N        0.60331    0.09196    0.37842    1.000
    Si3063   Si       0.60167    0.05263    0.40189    1.000
    Si3064   Si       0.49530    0.06757    0.36870    1.000
    N3065    N        0.49285    0.02647    0.38278    1.000
    N3066    N        0.49187    0.09626    0.40106    1.000
    N3067    N        0.53643    0.08053    0.35145    1.000
    N3068    N        0.71171    0.04574    0.38428    1.000
    Si3069   Si       0.63609    0.11738    0.39225    1.000
    N3070    N        0.73527    0.11330    0.37700    1.000
    N3071    N        0.64080    0.03399    0.40661    1.000
    Si3072   Si       0.74447    0.07078    0.37256    1.000
    N3073    N        0.51597    0.19254    0.37797    1.000
    N3074    N        0.56033    0.24596    0.37295    1.000
    Si3075   Si       0.54961    0.21092    0.39660    1.000
    N3076    N        0.58538    0.18778    0.40192    1.000
    N3077    N        0.69911    0.24103    0.38933    1.000
    N3078    N        0.65893    0.13455    0.36126    1.000
    N3079    N        0.71439    0.17505    0.37669    1.000
    N3080    N        0.63069    0.23362    0.37283    1.000
    Si3081   Si       0.70332    0.13749    0.35857    1.000
    Si3082   Si       0.62073    0.21150    0.40919    1.000
    N3083    N        0.59240    0.06756    0.44242    1.000
    Si3084   Si       0.51500    0.11973    0.42708    1.000
    N3085    N        0.53681    0.02995    0.45346    1.000
    N3086    N        0.52490    0.09542    0.46352    1.000
    N3087    N        0.55328    0.12867    0.41011    1.000
    Si3088   Si       0.52694    0.01712    0.41244    1.000
    N3089    N        0.66608    0.09273    0.41091    1.000
    N3090    N        0.69346    0.05584    0.45297    1.000
    Si3091   Si       0.67745    0.09692    0.45248    1.000
    Si3092   Si       0.67985    0.05333    0.40958    1.000
    N3093    N        0.53430    0.21563    0.43763    1.000
    Si3094   Si       0.58280    0.15439    0.42868    1.000
    Si3095   Si       0.57096    0.21400    0.46066    1.000
    Si3096   Si       0.49675    0.19518    0.45232    1.000
    N3097    N        0.60651    0.23337    0.44409    1.000
    N3098    N        0.49059    0.15388    0.44172    1.000
    Si3099   Si       0.69972    0.20111    0.40789    1.000
    N3100    N        0.66005    0.19326    0.42124    1.000
    Si3101   Si       0.65194    0.16276    0.45052    1.000
    N3102    N        0.62344    0.14064    0.42766    1.000
    N3103    N        0.72626    0.19563    0.44243    1.000
    Si3104   Si       0.72854    0.15387    0.45623    1.000
    N3105    N        0.68813    0.13863    0.45553    1.000
    N3106    N        0.57864    0.07345    0.50293    1.000
    Si3107   Si       0.61629    0.06761    0.47981    1.000
    N3108    N        0.60745    0.13142    0.52716    1.000
    Si3109   Si       0.55567    0.06580    0.46790    1.000
    N3110    N        0.64425    0.09876    0.48147    1.000
    N3111    N        0.62987    0.02812    0.48899    1.000
    Si3112   Si       0.64585    0.13162    0.50814    1.000
    Si3113   Si       0.71244    0.02259    0.46935    1.000
    N3114    N        0.55975    0.23409    0.49865    1.000
    Si3115   Si       0.59506    0.17212    0.50963    1.000
    N3116    N        0.50245    0.19637    0.49722    1.000
    N3117    N        0.57725    0.17322    0.47008    1.000
    Si3118   Si       0.53280    0.21121    0.52468    1.000
    Si3119   Si       0.65464    0.21529    0.51021    1.000
    N3120    N        0.66471    0.24995    0.48345    1.000
    N3121    N        0.73490    0.26075    0.48246    1.000
    N3122    N        0.63919    0.17605    0.49171    1.000
    Si3123   Si       0.58228    0.09820    0.54043    1.000
    N3124    N        0.54526    0.11652    0.55481    1.000
    Si3125   Si       0.50227    0.11855    0.55168    1.000
    N3126    N        0.60401    0.07397    0.56949    1.000
    Si3127   Si       0.69971    0.11454    0.56721    1.000
    N3128    N        0.72274    0.07819    0.56842    1.000
    Si3129   Si       0.71245    0.03845    0.57820    1.000
    N3130    N        0.66995    0.03874    0.58535    1.000
    N3131    N        0.68068    0.12692    0.53035    1.000
    N3132    N        0.50012    0.15884    0.56855    1.000
    N3133    N        0.53300    0.22662    0.56498    1.000
    Si3134   Si       0.54353    0.15780    0.56973    1.000
    N3135    N        0.56060    0.17808    0.53570    1.000
    Si3136   Si       0.49482    0.24583    0.57465    1.000
    N3137    N        0.72199    0.15518    0.56846    1.000
    Si3138   Si       0.69197    0.18924    0.57987    1.000
    N3139    N        0.61812    0.23058    0.52923    1.000
    N3140    N        0.68351    0.19675    0.53721    1.000
    Si3141   Si       0.61576    0.25282    0.56943    1.000
    Si3142   Si       0.70685    0.16164    0.52694    1.000
    N3143    N        0.56469    0.07591    0.62111    1.000
    N3144    N        0.50511    0.12735    0.62558    1.000
    Si3145   Si       0.58149    0.04614    0.59468    1.000
    Si3146   Si       0.53024    0.09585    0.64034    1.000
    N3147    N        0.61175    0.01397    0.59400    1.000
    N3148    N        0.55054    0.01459    0.59012    1.000
    N3149    N        0.61499    0.12867    0.63938    1.000
    N3150    N        0.66504    0.10886    0.59150    1.000
    N3151    N        0.72839    0.02612    0.61534    1.000
    N3152    N        0.62955    0.06146    0.63497    1.000
    Si3153   Si       0.64158    0.07169    0.59242    1.000
    Si3154   Si       0.56196    0.22005    0.59913    1.000
    N3155    N        0.54924    0.17815    0.60631    1.000
    N3156    N        0.54993    0.24694    0.63189    1.000
    N3157    N        0.60595    0.22391    0.59971    1.000
    N3158    N        0.66040    0.17506    0.60492    1.000
    N3159    N        0.66246    0.23870    0.63361    1.000
    N3160    N        0.71224    0.22518    0.59101    1.000
    Si3161   Si       0.63473    0.20601    0.62716    1.000
    Si3162   Si       0.65430    0.13736    0.62517    1.000
    N3163    N        0.51201    0.06426    0.66508    1.000
    N3164    N        0.58652    0.07252    0.68506    1.000
    Si3165   Si       0.54571    0.05969    0.69420    1.000
    N3166    N        0.55289    0.12632    0.66542    1.000
    Si3167   Si       0.59834    0.08986    0.64649    1.000
    N3168    N        0.69190    0.06002    0.66003    1.000
    Si3169   Si       0.65783    0.03339    0.65537    1.000
    Si3170   Si       0.68719    0.09447    0.68426    1.000
    N3171    N        0.64039    0.02418    0.69496    1.000
    Si3172   Si       0.73355    0.05009    0.65319    1.000
    N3173    N        0.50131    0.18053    0.67069    1.000
    Si3174   Si       0.59789    0.15732    0.66872    1.000
    Si3175   Si       0.56428    0.23463    0.66966    1.000
    N3176    N        0.56489    0.18916    0.66971    1.000
    N3177    N        0.60069    0.24568    0.68570    1.000
    Si3178   Si       0.53103    0.16069    0.64296    1.000
    N3179    N        0.67954    0.12985    0.66060    1.000
    Si3180   Si       0.67259    0.16660    0.68220    1.000
    N3181    N        0.63396    0.18316    0.66581    1.000
    N3182    N        0.69850    0.19949    0.68419    1.000
    Si3183   Si       0.68438    0.23544    0.66988    1.000
    N3184    N        0.53516    0.09008    0.72224    1.000
    N3185    N        0.60508    0.05082    0.74734    1.000
    Si3186   Si       0.57772    0.01527    0.74153    1.000
    Si3187   Si       0.56136    0.12221    0.70850    1.000
    N3188    N        0.49729    0.04651    0.75714    1.000
    N3189    N        0.55044    0.01989    0.70842    1.000
    N3190    N        0.49458    0.11922    0.76343    1.000
    N3191    N        0.72389    0.03138    0.73709    1.000
    N3192    N        0.72332    0.09724    0.71219    1.000
    N3193    N        0.65157    0.08926    0.70946    1.000
    Si3194   Si       0.63776    0.12591    0.73241    1.000
    Si3195   Si       0.62094    0.05999    0.70915    1.000
    N3196    N        0.60209    0.13694    0.70883    1.000
    N3197    N        0.54422    0.15857    0.72680    1.000
    Si3198   Si       0.51181    0.15749    0.75580    1.000
    N3199    N        0.49521    0.24838    0.75555    1.000
    Si3200   Si       0.53411    0.19126    0.70226    1.000
    N3201    N        0.53144    0.23522    0.70003    1.000
    Si3202   Si       0.73626    0.19655    0.70493    1.000
    N3203    N        0.66776    0.15713    0.72510    1.000
    N3204    N        0.66669    0.25657    0.70673    1.000
    N3205    N        0.73267    0.18429    0.74725    1.000
    Si3206   Si       0.60109    0.08533    0.77253    1.000
    N3207    N        0.52146    0.08051    0.81183    1.000
    Si3208   Si       0.57817    0.02786    0.81078    1.000
    N3209    N        0.59296    0.06912    0.81464    1.000
    N3210    N        0.56395    0.10421    0.77400    1.000
    N3211    N        0.55403    0.01669    0.77729    1.000
    Si3212   Si       0.52355    0.08760    0.76619    1.000
    Si3213   Si       0.51302    0.00839    0.76828    1.000
    Si3214   Si       0.70704    0.00990    0.77025    1.000
    N3215    N        0.63114    0.11534    0.77239    1.000
    N3216    N        0.72015    0.02862    0.80801    1.000
    N3217    N        0.52027    0.18295    0.78924    1.000
    N3218    N        0.50144    0.23853    0.81441    1.000
    Si3219   Si       0.48949    0.21308    0.78014    1.000
    Si3220   Si       0.65593    0.24742    0.78241    1.000
    Si3221   Si       0.64811    0.13377    0.80843    1.000
    N3222    N        0.67415    0.21116    0.77118    1.000
    N3223    N        0.68598    0.15373    0.79763    1.000
    Si3224   Si       0.66871    0.19366    0.81795    1.000
    Si3225   Si       0.69217    0.17465    0.75611    1.000
    N3226    N        0.55281    0.02423    0.84499    1.000
    N3227    N        0.55551    0.08574    0.86757    1.000
    N3228    N        0.49303    0.11393    0.86985    1.000
    Si3229   Si       0.51048    0.01102    0.84763    1.000
    Si3230   Si       0.55961    0.10045    0.82185    1.000
    Si3231   Si       0.57057    0.04799    0.87720    1.000
    Si3232   Si       0.70084    0.05752    0.83398    1.000
    N3233    N        0.64417    0.10869    0.84445    1.000
    Si3234   Si       0.62861    0.06917    0.84212    1.000
    N3235    N        0.65972    0.04286    0.82481    1.000
    N3236    N        0.71303    0.13076    0.87619    1.000
    N3237    N        0.71769    0.09580    0.81865    1.000
    N3238    N        0.56185    0.14396    0.83048    1.000
    N3239    N        0.56754    0.20146    0.84954    1.000
    Si3240   Si       0.53455    0.17909    0.82940    1.000
    Si3241   Si       0.59545    0.16707    0.84612    1.000
    N3242    N        0.50069    0.18187    0.85657    1.000
    Si3243   Si       0.49152    0.22688    0.85804    1.000
    N3244    N        0.63095    0.17215    0.82201    1.000
    Si3245   Si       0.71642    0.14102    0.82989    1.000
    Si3246   Si       0.67832    0.25927    0.85891    1.000
    N3247    N        0.72079    0.25418    0.85759    1.000
    N3248    N        0.69829    0.18931    0.85076    1.000
    N3249    N        0.65855    0.23704    0.82539    1.000
    Si3250   Si       0.73928    0.20536    0.84113    1.000
    N3251    N        0.55434    0.03998    0.91758    1.000
    Si3252   Si       0.52698    0.10309    0.89505    1.000
    N3253    N        0.50499    0.08868    0.93288    1.000
    N3254    N        0.61282    0.05123    0.87613    1.000
    Si3255   Si       0.63990    0.12400    0.88628    1.000
    Si3256   Si       0.69862    0.09459    0.89982    1.000
    Si3257   Si       0.63463    0.05055    0.91545    1.000
    N3258    N        0.65651    0.08788    0.90567    1.000
    N3259    N        0.71211    0.05846    0.87799    1.000
    N3260    N        0.54290    0.13784    0.91823    1.000
    N3261    N        0.52584    0.23665    0.89047    1.000
    Si3262   Si       0.58034    0.15852    0.91845    1.000
    N3263    N        0.58067    0.20160    0.92199    1.000
    Si3264   Si       0.56949    0.22454    0.88648    1.000
    N3265    N        0.60248    0.14468    0.88295    1.000
    Si3266   Si       0.67737    0.22488    0.93129    1.000
    Si3267   Si       0.69494    0.16864    0.89075    1.000
    N3268    N        0.65819    0.24468    0.89539    1.000
    N3269    N        0.65986    0.15369    0.91112    1.000
    N3270    N        0.70826    0.19869    0.91785    1.000
    Si3271   Si       0.56891    0.05933    0.95485    1.000
    N3272    N        0.55210    0.02471    0.97836    1.000
    N3273    N        0.56289    0.09526    0.97798    1.000
    Si3274   Si       0.59461    0.12326    0.98743    1.000
    N3275    N        0.49632    0.00921    0.95093    1.000
    N3276    N        0.61086    0.05620    0.95064    1.000
    Si3277   Si       0.50571    0.13242    0.94127    1.000
    Si3278   Si       0.49008    0.05394    0.95450    1.000
    Si3279   Si       0.54054    0.00495    0.93844    1.000
    Si3280   Si       0.67571    0.01035    0.95582    1.000
    N3281    N        0.67401    0.05105    0.96976    1.000
    Si3282   Si       0.63411    0.05686    0.98734    1.000
    Si3283   Si       0.70846    0.07639    0.97663    1.000
    N3284    N        0.71383    0.09908    0.93993    1.000
    Si3285   Si       0.60330    0.21715    0.95705    1.000
    N3286    N        0.60462    0.14589    0.95226    1.000
    N3287    N        0.50544    0.13568    0.98461    1.000
    Si3288   Si       0.64602    0.16028    0.95107    1.000
    Si3289   Si       0.69321    0.25493    0.99417    1.000
    N3290    N        0.64572    0.20431    0.95532    1.000
    N3291    N        0.65275    0.15698    0.99568    1.000
    N3292    N        0.59774    0.29595    0.01012    1.000
    N3293    N        0.53297    0.33136    0.02176    1.000
    Si3294   Si       0.57834    0.28563    0.04713    1.000
    N3295    N        0.58276    0.37466    0.00731    1.000
    Si3296   Si       0.49783    0.34695    0.00057    1.000
    N3297    N        0.54114    0.26358    0.05496    1.000
    N3298    N        0.72139    0.30684    0.04922    1.000
    N3299    N        0.66173    0.26576    0.02260    1.000
    N3300    N        0.64752    0.33832    0.04129    1.000
    Si3301   Si       0.64173    0.30254    0.01601    1.000
    N3302    N        0.70189    0.37456    0.01984    1.000
    Si3303   Si       0.66205    0.36366    0.00769    1.000
    Si3304   Si       0.71689    0.34979    0.05257    1.000
    Si3305   Si       0.58613    0.46167    0.04207    1.000
    Si3306   Si       0.51359    0.45920    0.02756    1.000
    N3307    N        0.60338    0.44757    0.00635    1.000
    N3308    N        0.54835    0.48298    0.03511    1.000
    Si3309   Si       0.72335    0.40837    0.00620    1.000
    Si3310   Si       0.64541    0.50515    0.04156    1.000
    N3311    N        0.67865    0.47718    0.04802    1.000
    Si3312   Si       0.71221    0.47065    0.01655    1.000
    N3313    N        0.73999    0.43778    0.03155    1.000
    N3314    N        0.57193    0.31776    0.07800    1.000
    N3315    N        0.49975    0.31310    0.08177    1.000
    Si3316   Si       0.53333    0.33824    0.06691    1.000
    Si3317   Si       0.50884    0.26916    0.08686    1.000
    N3318    N        0.53716    0.37634    0.08586    1.000
    N3319    N        0.61124    0.26281    0.06535    1.000
    Si3320   Si       0.59306    0.31112    0.11485    1.000
    N3321    N        0.67995    0.26509    0.08614    1.000
    N3322    N        0.62187    0.37304    0.09352    1.000
    N3323    N        0.69576    0.35217    0.09103    1.000
    Si3324   Si       0.65258    0.34411    0.08351    1.000
    Si3325   Si       0.71975    0.27041    0.07538    1.000
    N3326    N        0.63606    0.31235    0.10973    1.000
    N3327    N        0.58291    0.42609    0.06773    1.000
    Si3328   Si       0.54306    0.41965    0.08455    1.000
    N3329    N        0.50871    0.43157    0.05945    1.000
    N3330    N        0.61263    0.48988    0.06421    1.000
    N3331    N        0.72867    0.45599    0.09360    1.000
    Si3332   Si       0.61696    0.41580    0.09064    1.000
    Si3333   Si       0.68690    0.46381    0.08931    1.000
    N3334    N        0.65428    0.43495    0.09401    1.000
    N3335    N        0.58721    0.34209    0.14581    1.000
    Si3336   Si       0.49546    0.28780    0.15959    1.000
    N3337    N        0.57992    0.27105    0.12472    1.000
    N3338    N        0.51839    0.32352    0.16724    1.000
    N3339    N        0.51516    0.26207    0.12993    1.000
    Si3340   Si       0.61775    0.37578    0.13727    1.000
    N3341    N        0.71263    0.33564    0.15848    1.000
    Si3342   Si       0.72146    0.36235    0.12506    1.000
    N3343    N        0.65834    0.36991    0.15120    1.000
    N3344    N        0.66734    0.28731    0.16093    1.000
    Si3345   Si       0.65432    0.27562    0.12143    1.000
    Si3346   Si       0.66968    0.33069    0.16960    1.000
    N3347    N        0.60710    0.41775    0.13614    1.000
    Si3348   Si       0.57739    0.44759    0.14367    1.000
    N3349    N        0.60582    0.47731    0.13042    1.000
    Si3350   Si       0.52950    0.49619    0.11369    1.000
    N3351    N        0.54247    0.45248    0.11351    1.000
    N3352    N        0.48758    0.46795    0.16233    1.000
    Si3353   Si       0.68499    0.40105    0.16502    1.000
    N3354    N        0.71796    0.40434    0.13746    1.000
    N3355    N        0.67369    0.48490    0.12581    1.000
    N3356    N        0.73101    0.47250    0.15950    1.000
    N3357    N        0.66346    0.44028    0.16818    1.000
    Si3358   Si       0.64061    0.45198    0.13421    1.000
    Si3359   Si       0.68919    0.47953    0.16786    1.000
    N3360    N        0.58365    0.31239    0.20536    1.000
    Si3361   Si       0.57223    0.27210    0.21733    1.000
    N3362    N        0.54136    0.37210    0.19870    1.000
    Si3363   Si       0.50024    0.35974    0.18605    1.000
    Si3364   Si       0.55840    0.33641    0.17745    1.000
    Si3365   Si       0.61938    0.32910    0.22559    1.000
    N3366    N        0.65739    0.34010    0.21078    1.000
    N3367    N        0.71898    0.32446    0.22651    1.000
    Si3368   Si       0.73831    0.31583    0.18833    1.000
    N3369    N        0.73415    0.27276    0.17928    1.000
    Si3370   Si       0.69436    0.35838    0.22792    1.000
    Si3371   Si       0.52410    0.48377    0.18130    1.000
    N3372    N        0.50896    0.49565    0.22102    1.000
    N3373    N        0.50257    0.42800    0.21566    1.000
    N3374    N        0.55885    0.45815    0.18209    1.000
    Si3375   Si       0.58130    0.46365    0.21965    1.000
    Si3376   Si       0.53789    0.40492    0.22729    1.000
    Si3377   Si       0.65523    0.44802    0.21172    1.000
    N3378    N        0.70539    0.39407    0.20343    1.000
    N3379    N        0.68898    0.47547    0.21512    1.000
    N3380    N        0.62387    0.47613    0.21253    1.000
    N3381    N        0.54440    0.28178    0.25087    1.000
    N3382    N        0.60734    0.36461    0.25192    1.000
    Si3383   Si       0.60872    0.33874    0.28722    1.000
    Si3384   Si       0.50727    0.26181    0.24117    1.000
    N3385    N        0.52409    0.38036    0.26130    1.000
    Si3386   Si       0.61757    0.26297    0.27041    1.000
    N3387    N        0.62194    0.30567    0.26275    1.000
    Si3388   Si       0.72592    0.30703    0.26417    1.000
    N3389    N        0.69860    0.37395    0.26907    1.000
    Si3390   Si       0.49099    0.46053    0.24135    1.000
    N3391    N        0.57917    0.49589    0.24815    1.000
    N3392    N        0.57773    0.42381    0.23482    1.000
    N3393    N        0.49423    0.44259    0.28193    1.000
    Si3394   Si       0.55633    0.49891    0.28477    1.000
    Si3395   Si       0.61167    0.40776    0.25868    1.000
    N3396    N        0.65131    0.42142    0.24447    1.000
    Si3397   Si       0.68914    0.41626    0.26917    1.000
    Si3398   Si       0.69555    0.50370    0.24675    1.000
    N3399    N        0.72935    0.42793    0.25580    1.000
    N3400    N        0.71504    0.48637    0.28516    1.000
    N3401    N        0.52130    0.28225    0.32262    1.000
    Si3402   Si       0.53360    0.36074    0.29859    1.000
    N3403    N        0.56578    0.33192    0.29877    1.000
    N3404    N        0.58770    0.26243    0.30446    1.000
    Si3405   Si       0.55496    0.28821    0.29356    1.000
    N3406    N        0.49278    0.33791    0.29422    1.000
    Si3407   Si       0.68093    0.34984    0.30244    1.000
    N3408    N        0.63898    0.34412    0.31679    1.000
    Si3409   Si       0.68352    0.27183    0.31412    1.000
    N3410    N        0.69923    0.36269    0.34140    1.000
    N3411    N        0.69442    0.30960    0.29314    1.000
    N3412    N        0.66644    0.29168    0.35028    1.000
    N3413    N        0.53346    0.39268    0.32642    1.000
    Si3414   Si       0.51802    0.43331    0.31757    1.000
    N3415    N        0.54948    0.46273    0.30887    1.000
    Si3416   Si       0.57430    0.47750    0.34130    1.000
    N3417    N        0.60882    0.41288    0.30192    1.000
    N3418    N        0.67147    0.49569    0.33990    1.000
    Si3419   Si       0.69941    0.46883    0.32090    1.000
    N3420    N        0.73466    0.45322    0.34276    1.000
    Si3421   Si       0.63897    0.42900    0.32836    1.000
    N3422    N        0.67829    0.43311    0.30789    1.000
    N3423    N        0.53200    0.31094    0.38485    1.000
    N3424    N        0.57925    0.35771    0.37249    1.000
    Si3425   Si       0.57285    0.31879    0.38662    1.000
    Si3426   Si       0.52700    0.27321    0.36593    1.000
    N3427    N        0.59958    0.29709    0.36159    1.000
    Si3428   Si       0.50155    0.33798    0.40068    1.000
    N3429    N        0.51277    0.37988    0.38954    1.000
    N3430    N        0.64194    0.34163    0.38902    1.000
    Si3431   Si       0.67376    0.37316    0.37633    1.000
    Si3432   Si       0.63411    0.31978    0.35122    1.000
    Si3433   Si       0.73126    0.26155    0.36851    1.000
    Si3434   Si       0.66066    0.26292    0.38409    1.000
    Si3435   Si       0.54984    0.38646    0.36612    1.000
    N3436    N        0.56440    0.42754    0.37530    1.000
    Si3437   Si       0.54237    0.45696    0.40010    1.000
    N3438    N        0.55005    0.49211    0.37438    1.000
    Si3439   Si       0.61107    0.43264    0.38659    1.000
    N3440    N        0.61497    0.46064    0.35033    1.000
    N3441    N        0.64710    0.40728    0.36460    1.000
    Si3442   Si       0.64610    0.49050    0.37674    1.000
    Si3443   Si       0.73262    0.43821    0.38440    1.000
    N3444    N        0.64014    0.46034    0.40636    1.000
    N3445    N        0.58422    0.32704    0.42847    1.000
    N3446    N        0.49397    0.33917    0.44283    1.000
    Si3447   Si       0.50785    0.37723    0.46135    1.000
    Si3448   Si       0.61133    0.35866    0.41523    1.000
    Si3449   Si       0.63484    0.26489    0.45592    1.000
    Si3450   Si       0.66858    0.32522    0.42762    1.000
    N3451    N        0.65179    0.28345    0.42150    1.000
    N3452    N        0.63676    0.34365    0.45377    1.000
    N3453    N        0.70035    0.30792    0.45314    1.000
    N3454    N        0.69535    0.35891    0.41081    1.000
    N3455    N        0.54736    0.39031    0.45036    1.000
    Si3456   Si       0.58148    0.49152    0.45415    1.000
    N3457    N        0.57141    0.45602    0.43443    1.000
    Si3458   Si       0.58151    0.41685    0.45046    1.000
    N3459    N        0.50240    0.44458    0.41486    1.000
    N3460    N        0.60698    0.40135    0.41674    1.000
    Si3461   Si       0.71103    0.39015    0.43801    1.000
    Si3462   Si       0.67672    0.45658    0.43173    1.000
    N3463    N        0.70283    0.42686    0.41521    1.000
    N3464    N        0.69490    0.49618    0.41748    1.000
    Si3465   Si       0.73845    0.50015    0.42383    1.000
    N3466    N        0.73666    0.50333    0.46751    1.000
    N3467    N        0.50464    0.37546    0.50377    1.000
    N3468    N        0.58545    0.34926    0.50605    1.000
    N3469    N        0.60518    0.28741    0.48098    1.000
    Si3470   Si       0.59728    0.32855    0.46886    1.000
    N3471    N        0.52992    0.30935    0.52750    1.000
    Si3472   Si       0.59066    0.26077    0.51129    1.000
    Si3473   Si       0.69339    0.28285    0.49256    1.000
    Si3474   Si       0.66147    0.35380    0.48871    1.000
    N3475    N        0.66602    0.31492    0.50891    1.000
    N3476    N        0.64278    0.37651    0.52304    1.000
    N3477    N        0.69123    0.38266    0.47512    1.000
    N3478    N        0.54693    0.50531    0.47844    1.000
    Si3479   Si       0.60209    0.38934    0.51806    1.000
    N3480    N        0.50993    0.44577    0.49540    1.000
    Si3481   Si       0.52436    0.48385    0.50876    1.000
    N3482    N        0.60626    0.41769    0.48558    1.000
    Si3483   Si       0.49715    0.41472    0.52189    1.000
    N3484    N        0.61693    0.48887    0.47806    1.000
    N3485    N        0.66989    0.44742    0.47408    1.000
    Si3486   Si       0.69793    0.42037    0.49624    1.000
    Si3487   Si       0.63188    0.45104    0.49482    1.000
    N3488    N        0.69469    0.50527    0.52363    1.000
    N3489    N        0.59098    0.28440    0.54821    1.000
    Si3490   Si       0.57011    0.32202    0.53919    1.000
    N3491    N        0.56661    0.34288    0.57521    1.000
    N3492    N        0.49548    0.35007    0.57041    1.000
    Si3493   Si       0.50193    0.34071    0.52817    1.000
    Si3494   Si       0.67402    0.30238    0.54884    1.000
    N3495    N        0.67681    0.33912    0.57275    1.000
    N3496    N        0.70911    0.28205    0.53403    1.000
    N3497    N        0.65454    0.27079    0.57106    1.000
    Si3498   Si       0.66990    0.37765    0.55694    1.000
    N3499    N        0.51896    0.41721    0.55761    1.000
    N3500    N        0.55287    0.48022    0.54359    1.000
    N3501    N        0.58572    0.41363    0.55078    1.000
    Si3502   Si       0.55409    0.44092    0.56774    1.000
    Si3503   Si       0.65839    0.49694    0.54578    1.000
    Si3504   Si       0.62327    0.42997    0.56894    1.000
    N3505    N        0.64055    0.45790    0.53754    1.000
    N3506    N        0.69806    0.40399    0.53857    1.000
    Si3507   Si       0.73648    0.39771    0.55642    1.000
    N3508    N        0.65040    0.40039    0.58558    1.000
    Si3509   Si       0.56280    0.35331    0.61621    1.000
    Si3510   Si       0.52420    0.28264    0.63318    1.000
    N3511    N        0.49956    0.28178    0.59829    1.000
    N3512    N        0.54535    0.32146    0.63954    1.000
    N3513    N        0.60173    0.36692    0.62837    1.000
    Si3514   Si       0.70335    0.33621    0.60931    1.000
    N3515    N        0.70778    0.29396    0.60771    1.000
    N3516    N        0.73038    0.36793    0.59001    1.000
    Si3517   Si       0.64198    0.38342    0.62570    1.000
    N3518    N        0.66815    0.34970    0.63906    1.000
    Si3519   Si       0.68546    0.25777    0.60031    1.000
    N3520    N        0.73276    0.33785    0.64503    1.000
    N3521    N        0.53764    0.38949    0.61639    1.000
    N3522    N        0.53451    0.45676    0.60630    1.000
    Si3523   Si       0.50190    0.48474    0.60663    1.000
    Si3524   Si       0.53935    0.42719    0.63920    1.000
    Si3525   Si       0.50424    0.38844    0.58805    1.000
    N3526    N        0.60990    0.44866    0.60392    1.000
    N3527    N        0.66056    0.49985    0.58844    1.000
    Si3528   Si       0.62206    0.49203    0.60909    1.000
    N3529    N        0.73189    0.49759    0.59140    1.000
    N3530    N        0.71225    0.44938    0.63670    1.000
    Si3531   Si       0.52438    0.32490    0.67939    1.000
    N3532    N        0.49919    0.28917    0.66806    1.000
    N3533    N        0.49874    0.35664    0.69134    1.000
    Si3534   Si       0.65033    0.33204    0.67584    1.000
    Si3535   Si       0.71273    0.35708    0.67922    1.000
    N3536    N        0.71381    0.26710    0.66778    1.000
    N3537    N        0.68753    0.32794    0.69795    1.000
    N3538    N        0.62049    0.30559    0.69607    1.000
    N3539    N        0.62877    0.36540    0.69806    1.000
    Si3540   Si       0.69764    0.28681    0.70269    1.000
    N3541    N        0.57212    0.44305    0.66282    1.000
    N3542    N        0.51035    0.42747    0.67122    1.000
    Si3543   Si       0.49596    0.46812    0.67981    1.000
    N3544    N        0.49703    0.49776    0.64727    1.000
    Si3545   Si       0.55520    0.44872    0.70362    1.000
    Si3546   Si       0.61167    0.44538    0.64833    1.000
    Si3547   Si       0.65563    0.40099    0.69247    1.000
    N3548    N        0.69153    0.46269    0.69173    1.000
    N3549    N        0.63369    0.48483    0.65159    1.000
    Si3550   Si       0.72059    0.43491    0.67665    1.000
    N3551    N        0.69883    0.39710    0.68716    1.000
    Si3552   Si       0.67976    0.47537    0.65229    1.000
    N3553    N        0.64287    0.41506    0.65363    1.000
    Si3554   Si       0.59952    0.33899    0.71648    1.000
    Si3555   Si       0.53594    0.32159    0.74434    1.000
    N3556    N        0.50000    0.30529    0.72665    1.000
    N3557    N        0.55830    0.33068    0.70757    1.000
    Si3558   Si       0.49654    0.26126    0.71017    1.000
    N3559    N        0.62165    0.26350    0.75815    1.000
    N3560    N        0.72641    0.28302    0.73447    1.000
    Si3561   Si       0.62537    0.26586    0.71337    1.000
    Si3562   Si       0.60446    0.49988    0.74824    1.000
    Si3563   Si       0.53288    0.39778    0.75472    1.000
    N3564    N        0.58754    0.46415    0.73282    1.000
    N3565    N        0.56161    0.40971    0.72582    1.000
    Si3566   Si       0.60266    0.42360    0.73981    1.000
    N3567    N        0.49176    0.40551    0.73658    1.000
    N3568    N        0.52839    0.48267    0.70463    1.000
    N3569    N        0.63966    0.49873    0.71580    1.000
    N3570    N        0.64335    0.42843    0.72545    1.000
    Si3571   Si       0.66669    0.46504    0.72654    1.000
    N3572    N        0.69314    0.46768    0.76222    1.000
    Si3573   Si       0.59312    0.29063    0.77534    1.000
    Si3574   Si       0.50615    0.35273    0.80567    1.000
    Si3575   Si       0.51477    0.27003    0.78683    1.000
    N3576    N        0.55135    0.28678    0.76731    1.000
    N3577    N        0.49609    0.30821    0.80518    1.000
    N3578    N        0.52843    0.35658    0.76851    1.000
    Si3579   Si       0.61007    0.36411    0.79197    1.000
    N3580    N        0.60779    0.29351    0.81632    1.000
    N3581    N        0.60248    0.33408    0.75998    1.000
    N3582    N        0.67522    0.28755    0.78321    1.000
    Si3583   Si       0.68802    0.36945    0.79980    1.000
    N3584    N        0.64930    0.35070    0.80538    1.000
    Si3585   Si       0.71256    0.30666    0.76837    1.000
    Si3586   Si       0.64876    0.30813    0.81245    1.000
    N3587    N        0.70698    0.34971    0.76414    1.000
    Si3588   Si       0.49834    0.50504    0.78557    1.000
    Si3589   Si       0.57644    0.41631    0.80870    1.000
    N3590    N        0.60555    0.40439    0.77681    1.000
    N3591    N        0.53594    0.41871    0.79278    1.000
    N3592    N        0.52626    0.48321    0.81215    1.000
    Si3593   Si       0.56790    0.49042    0.82274    1.000
    Si3594   Si       0.50830    0.44262    0.81978    1.000
    N3595    N        0.68735    0.41347    0.80111    1.000
    Si3596   Si       0.71800    0.43619    0.77713    1.000
    Si3597   Si       0.68161    0.49922    0.78992    1.000
    Si3598   Si       0.58576    0.28854    0.85274    1.000
    Si3599   Si       0.56567    0.35616    0.85900    1.000
    N3600    N        0.52778    0.34885    0.84245    1.000
    N3601    N        0.54305    0.28797    0.84723    1.000
    Si3602   Si       0.50315    0.30838    0.84928    1.000
    N3603    N        0.59731    0.32703    0.87101    1.000
    N3604    N        0.58509    0.37937    0.82856    1.000
    Si3605   Si       0.69810    0.33544    0.85859    1.000
    N3606    N        0.66951    0.30189    0.84961    1.000
    N3607    N        0.71801    0.35710    0.82682    1.000
    N3608    N        0.73056    0.31933    0.87974    1.000
    N3609    N        0.66703    0.35948    0.87634    1.000
    N3610    N        0.51220    0.43216    0.86120    1.000
    N3611    N        0.55557    0.49040    0.86789    1.000
    N3612    N        0.59081    0.45239    0.82704    1.000
    Si3613   Si       0.60956    0.45143    0.86717    1.000
    N3614    N        0.71556    0.43310    0.86260    1.000
    Si3615   Si       0.71019    0.49309    0.86264    1.000
    N3616    N        0.68665    0.47954    0.82787    1.000
    N3617    N        0.64694    0.42896    0.86377    1.000
    Si3618   Si       0.68073    0.43781    0.83717    1.000
    N3619    N        0.50336    0.31590    0.90626    1.000
    N3620    N        0.55448    0.36772    0.89974    1.000
    Si3621   Si       0.50243    0.27108    0.90307    1.000
    Si3622   Si       0.52022    0.35354    0.92173    1.000
    N3623    N        0.59484    0.26126    0.88481    1.000
    N3624    N        0.64542    0.30801    0.91780    1.000
    Si3625   Si       0.62672    0.26869    0.91286    1.000
    Si3626   Si       0.63200    0.33985    0.89234    1.000
    N3627    N        0.62177    0.37805    0.91255    1.000
    N3628    N        0.52702    0.45861    0.92227    1.000
    Si3629   Si       0.58272    0.39644    0.91790    1.000
    N3630    N        0.58121    0.42726    0.88836    1.000
    Si3631   Si       0.54496    0.45121    0.88332    1.000
    Si3632   Si       0.65151    0.49346    0.91905    1.000
    Si3633   Si       0.70716    0.43961    0.90506    1.000
    N3634    N        0.68842    0.48010    0.89898    1.000
    N3635    N        0.61750    0.48706    0.89125    1.000
    Si3636   Si       0.65499    0.39760    0.89358    1.000
    N3637    N        0.68035    0.41431    0.92600    1.000
    Si3638   Si       0.57788    0.28374    0.97301    1.000
    N3639    N        0.52067    0.35766    0.96535    1.000
    N3640    N        0.57092    0.32099    0.95573    1.000
    Si3641   Si       0.50186    0.27816    0.97740    1.000
    Si3642   Si       0.55754    0.34528    0.98980    1.000
    N3643    N        0.54154    0.26303    0.98638    1.000
    N3644    N        0.60235    0.25908    0.95034    1.000
    N3645    N        0.65944    0.32485    0.98400    1.000
    Si3646   Si       0.67731    0.30581    0.94861    1.000
    N3647    N        0.73180    0.27380    0.98800    1.000
    N3648    N        0.71846    0.31915    0.94409    1.000
    N3649    N        0.67813    0.26253    0.95523    1.000
    Si3650   Si       0.60162    0.40864    0.98875    1.000
    N3651    N        0.57111    0.49095    0.96377    1.000
    N3652    N        0.57723    0.41799    0.95498    1.000
    Si3653   Si       0.55164    0.45227    0.95917    1.000
    N3654    N        0.52089    0.44676    0.98944    1.000
    Si3655   Si       0.61217    0.48156    0.97880    1.000
    N3656    N        0.69569    0.43949    0.98972    1.000
    N3657    N        0.64050    0.46381    0.95105    1.000
    N3658    N        0.71343    0.50373    0.98327    1.000
    N3659    N        0.64319    0.39588    0.98533    1.000
    Si3660   Si       0.66255    0.42738    0.96266    1.000
    N3661    N        0.57252    0.55050    0.01922    1.000
    N3662    N        0.51198    0.60020    0.01323    1.000
    Si3663   Si       0.55099    0.52543    0.04669    1.000
    Si3664   Si       0.61144    0.55071    0.99506    1.000
    N3665    N        0.51073    0.54486    0.05089    1.000
    Si3666   Si       0.49863    0.58830    0.05505    1.000
    N3667    N        0.65223    0.54542    0.05453    1.000
    Si3668   Si       0.73117    0.53202    0.01367    1.000
    N3669    N        0.69453    0.62082    0.00832    1.000
    N3670    N        0.71225    0.56635    0.03310    1.000
    Si3671   Si       0.67076    0.57858    0.02994    1.000
    N3672    N        0.63149    0.51345    0.00090    1.000
    N3673    N        0.64104    0.58256    0.99821    1.000
    Si3674   Si       0.73352    0.59393    0.99949    1.000
    N3675    N        0.56779    0.67838    0.00147    1.000
    Si3676   Si       0.59026    0.64282    0.00788    1.000
    N3677    N        0.56938    0.74036    0.02331    1.000
    Si3678   Si       0.57343    0.70040    0.03975    1.000
    N3679    N        0.58897    0.63812    0.05106    1.000
    Si3680   Si       0.61211    0.74540    0.02321    1.000
    N3681    N        0.67760    0.68536    0.04247    1.000
    N3682    N        0.70881    0.74672    0.04071    1.000
    N3683    N        0.61659    0.70527    0.04246    1.000
    Si3684   Si       0.65175    0.69105    0.00595    1.000
    Si3685   Si       0.68356    0.64210    0.04549    1.000
    Si3686   Si       0.71214    0.70585    0.02296    1.000
    N3687    N        0.52146    0.61840    0.07881    1.000
    N3688    N        0.56052    0.51859    0.09074    1.000
    N3689    N        0.61036    0.59990    0.10393    1.000
    Si3690   Si       0.60010    0.50794    0.10231    1.000
    Si3691   Si       0.64290    0.56924    0.09177    1.000
    Si3692   Si       0.72983    0.59274    0.06300    1.000
    Si3693   Si       0.62335    0.63023    0.07520    1.000
    N3694    N        0.65695    0.60845    0.06032    1.000
    N3695    N        0.68171    0.56375    0.11350    1.000
    N3696    N        0.59139    0.75349    0.09235    1.000
    Si3697   Si       0.51575    0.71698    0.08196    1.000
    N3698    N        0.54465    0.68797    0.06904    1.000
    Si3699   Si       0.55530    0.64578    0.07948    1.000
    N3700    N        0.65640    0.74542    0.08659    1.000
    N3701    N        0.63820    0.66665    0.09220    1.000
    Si3702   Si       0.71415    0.65156    0.11340    1.000
    Si3703   Si       0.64911    0.70365    0.07124    1.000
    N3704    N        0.72364    0.75644    0.10840    1.000
    N3705    N        0.71557    0.63381    0.07342    1.000
    N3706    N        0.54360    0.58488    0.13448    1.000
    Si3707   Si       0.58118    0.60719    0.13419    1.000
    Si3708   Si       0.52916    0.55549    0.16451    1.000
    N3709    N        0.53263    0.51465    0.15320    1.000
    Si3710   Si       0.50680    0.60256    0.11820    1.000
    Si3711   Si       0.71812    0.58101    0.12965    1.000
    N3712    N        0.70989    0.62141    0.14131    1.000
    Si3713   Si       0.66535    0.52930    0.13383    1.000
    N3714    N        0.62536    0.53929    0.11939    1.000
    N3715    N        0.68046    0.52441    0.17315    1.000
    Si3716   Si       0.68259    0.62857    0.17436    1.000
    N3717    N        0.49324    0.71479    0.12063    1.000
    Si3718   Si       0.58246    0.68087    0.14523    1.000
    N3719    N        0.55971    0.71824    0.13866    1.000
    Si3720   Si       0.52002    0.71981    0.15357    1.000
    Si3721   Si       0.59742    0.73879    0.13253    1.000
    N3722    N        0.57055    0.64743    0.12074    1.000
    N3723    N        0.68468    0.74405    0.16635    1.000
    Si3724   Si       0.71037    0.72426    0.13531    1.000
    N3725    N        0.62151    0.70344    0.14144    1.000
    Si3726   Si       0.65238    0.67489    0.13219    1.000
    N3727    N        0.73528    0.70817    0.16899    1.000
    N3728    N        0.69221    0.68673    0.12345    1.000
    N3729    N        0.64559    0.64356    0.16088    1.000
    N3730    N        0.54324    0.56017    0.20542    1.000
    Si3731   Si       0.58189    0.57721    0.21211    1.000
    N3732    N        0.59430    0.60069    0.17721    1.000
    N3733    N        0.61611    0.55334    0.22278    1.000
    Si3734   Si       0.70201    0.55547    0.19252    1.000
    N3735    N        0.67751    0.59048    0.19286    1.000
    Si3736   Si       0.64574    0.58661    0.22312    1.000
    N3737    N        0.63821    0.63205    0.22563    1.000
    N3738    N        0.55731    0.72020    0.22551    1.000
    N3739    N        0.51744    0.68478    0.17842    1.000
    Si3740   Si       0.54949    0.68052    0.21033    1.000
    Si3741   Si       0.52436    0.74788    0.21959    1.000
    N3742    N        0.58404    0.66767    0.18865    1.000
    N3743    N        0.51936    0.75507    0.17685    1.000
    Si3744   Si       0.64897    0.75873    0.18396    1.000
    N3745    N        0.69996    0.65530    0.20320    1.000
    Si3746   Si       0.61408    0.63653    0.19021    1.000
    N3747    N        0.63105    0.73865    0.21942    1.000
    Si3748   Si       0.72052    0.74499    0.19299    1.000
    N3749    N        0.70251    0.73920    0.23256    1.000
    N3750    N        0.51773    0.59922    0.27273    1.000
    N3751    N        0.52886    0.53034    0.27693    1.000
    N3752    N        0.58134    0.60648    0.24454    1.000
    Si3753   Si       0.55810    0.61199    0.27957    1.000
    Si3754   Si       0.50122    0.63016    0.24675    1.000
    Si3755   Si       0.51743    0.53728    0.23574    1.000
    Si3756   Si       0.62048    0.51281    0.23996    1.000
    N3757    N        0.66219    0.58755    0.26360    1.000
    Si3758   Si       0.70262    0.57430    0.26701    1.000
    N3759    N        0.71923    0.61478    0.25254    1.000
    N3760    N        0.70576    0.54455    0.23632    1.000
    N3761    N        0.65408    0.51278    0.26770    1.000
    N3762    N        0.53259    0.66124    0.24458    1.000
    N3763    N        0.59780    0.68620    0.26129    1.000
    Si3764   Si       0.55408    0.68350    0.27521    1.000
    Si3765   Si       0.59686    0.72503    0.24347    1.000
    N3766    N        0.59208    0.75533    0.27465    1.000
    Si3767   Si       0.54998    0.75638    0.28932    1.000
    N3768    N        0.66738    0.67022    0.26473    1.000
    Si3769   Si       0.73245    0.72554    0.25823    1.000
    Si3770   Si       0.68319    0.63811    0.23877    1.000
    N3771    N        0.65904    0.73803    0.28170    1.000
    Si3772   Si       0.62571    0.65262    0.26413    1.000
    Si3773   Si       0.66425    0.76087    0.24376    1.000
    Si3774   Si       0.59370    0.55347    0.32655    1.000
    N3775    N        0.56620    0.58243    0.30907    1.000
    Si3776   Si       0.51428    0.56569    0.30313    1.000
    N3777    N        0.51244    0.61070    0.33800    1.000
    N3778    N        0.52124    0.54617    0.34232    1.000
    N3779    N        0.58503    0.51352    0.31486    1.000
    N3780    N        0.63625    0.55883    0.32077    1.000
    N3781    N        0.68183    0.61870    0.32366    1.000
    Si3782   Si       0.64905    0.59706    0.30448    1.000
    N3783    N        0.70171    0.55199    0.30648    1.000
    Si3784   Si       0.66360    0.52816    0.30992    1.000
    Si3785   Si       0.72191    0.62297    0.34038    1.000
    N3786    N        0.62155    0.63155    0.30223    1.000
    Si3787   Si       0.52162    0.65361    0.33540    1.000
    N3788    N        0.55694    0.65058    0.30478    1.000
    Si3789   Si       0.59226    0.64730    0.32871    1.000
    Si3790   Si       0.49312    0.71634    0.31753    1.000
    N3791    N        0.53459    0.71728    0.29762    1.000
    N3792    N        0.48859    0.67384    0.31838    1.000
    N3793    N        0.62250    0.75010    0.33764    1.000
    N3794    N        0.72137    0.70444    0.29346    1.000
    N3795    N        0.65969    0.68833    0.32966    1.000
    Si3796   Si       0.67846    0.70083    0.29185    1.000
    Si3797   Si       0.66836    0.65209    0.34852    1.000
    N3798    N        0.57928    0.55360    0.36697    1.000
    Si3799   Si       0.53874    0.53470    0.38269    1.000
    N3800    N        0.57919    0.62163    0.36110    1.000
    N3801    N        0.53144    0.58590    0.39635    1.000
    Si3802   Si       0.60521    0.62797    0.39605    1.000
    Si3803   Si       0.54809    0.58992    0.35415    1.000
    Si3804   Si       0.60409    0.55101    0.40261    1.000
    N3805    N        0.64110    0.52919    0.39684    1.000
    N3806    N        0.72917    0.58368    0.35767    1.000
    Si3807   Si       0.73445    0.57508    0.40116    1.000
    N3808    N        0.53062    0.66903    0.37520    1.000
    Si3809   Si       0.56859    0.68390    0.38666    1.000
    Si3810   Si       0.51899    0.73157    0.39874    1.000
    N3811    N        0.49515    0.72847    0.36055    1.000
    N3812    N        0.59558    0.68473    0.35250    1.000
    N3813    N        0.55892    0.72038    0.40824    1.000
    Si3814   Si       0.50054    0.66260    0.40716    1.000
    N3815    N        0.64301    0.64231    0.38227    1.000
    Si3816   Si       0.72826    0.69527    0.37747    1.000
    Si3817   Si       0.62981    0.71013    0.35230    1.000
    N3818    N        0.70667    0.73342    0.38026    1.000
    N3819    N        0.70910    0.65690    0.36454    1.000
    N3820    N        0.64133    0.71745    0.39401    1.000
    Si3821   Si       0.67116    0.74850    0.39986    1.000
    Si3822   Si       0.51345    0.59454    0.43353    1.000
    Si3823   Si       0.53625    0.53252    0.44895    1.000
    N3824    N        0.57525    0.52810    0.42766    1.000
    Si3825   Si       0.57958    0.58085    0.45527    1.000
    N3826    N        0.60294    0.59098    0.41845    1.000
    N3827    N        0.53971    0.57299    0.46044    1.000
    N3828    N        0.50872    0.52760    0.41550    1.000
    Si3829   Si       0.67571    0.53401    0.42364    1.000
    N3830    N        0.69684    0.57259    0.42455    1.000
    Si3831   Si       0.69534    0.59143    0.46394    1.000
    N3832    N        0.51893    0.63728    0.44080    1.000
    Si3833   Si       0.56059    0.65204    0.45437    1.000
    N3834    N        0.59078    0.66529    0.41967    1.000
    Si3835   Si       0.56620    0.72582    0.45087    1.000
    N3836    N        0.60999    0.72694    0.45368    1.000
    N3837    N        0.49430    0.70262    0.42614    1.000
    N3838    N        0.52999    0.74640    0.46396    1.000
    N3839    N        0.71529    0.63331    0.46348    1.000
    N3840    N        0.66068    0.68202    0.45196    1.000
    Si3841   Si       0.62551    0.69436    0.42634    1.000
    N3842    N        0.67989    0.75496    0.44253    1.000
    N3843    N        0.58348    0.62249    0.47526    1.000
    N3844    N        0.61065    0.56169    0.47855    1.000
    N3845    N        0.49309    0.50941    0.52124    1.000
    Si3846   Si       0.62032    0.60463    0.49121    1.000
    Si3847   Si       0.70464    0.52638    0.48851    1.000
    N3848    N        0.71606    0.56794    0.49613    1.000
    Si3849   Si       0.63305    0.52845    0.48974    1.000
    N3850    N        0.65790    0.61220    0.47552    1.000
    N3851    N        0.66976    0.53149    0.46541    1.000
    N3852    N        0.49340    0.67244    0.49300    1.000
    Si3853   Si       0.57266    0.69634    0.51633    1.000
    N3854    N        0.55557    0.69117    0.47524    1.000
    N3855    N        0.59187    0.73685    0.51776    1.000
    Si3856   Si       0.50744    0.70774    0.47033    1.000
    Si3857   Si       0.61986    0.75131    0.48727    1.000
    Si3858   Si       0.67961    0.71798    0.46744    1.000
    N3859    N        0.67834    0.67083    0.52027    1.000
    N3860    N        0.72240    0.71437    0.47068    1.000
    N3861    N        0.65733    0.73371    0.50393    1.000
    Si3862   Si       0.67727    0.65127    0.47869    1.000
    N3863    N        0.56933    0.55428    0.55304    1.000
    N3864    N        0.50311    0.57861    0.55727    1.000
    Si3865   Si       0.54308    0.58527    0.57064    1.000
    N3866    N        0.55844    0.62555    0.55827    1.000
    Si3867   Si       0.55889    0.51551    0.56856    1.000
    Si3868   Si       0.49163    0.53634    0.55576    1.000
    Si3869   Si       0.61298    0.56419    0.55358    1.000
    N3870    N        0.51861    0.51690    0.58420    1.000
    N3871    N        0.61898    0.60101    0.53317    1.000
    N3872    N        0.72098    0.61506    0.54617    1.000
    N3873    N        0.63332    0.53059    0.53471    1.000
    Si3874   Si       0.59976    0.63682    0.55057    1.000
    Si3875   Si       0.53030    0.65574    0.56816    1.000
    N3876    N        0.54169    0.69375    0.54717    1.000
    Si3877   Si       0.51619    0.72671    0.56062    1.000
    N3878    N        0.60798    0.67265    0.52917    1.000
    N3879    N        0.48975    0.64840    0.55392    1.000
    Si3880   Si       0.69138    0.72019    0.58164    1.000
    N3881    N        0.64911    0.71890    0.56913    1.000
    Si3882   Si       0.71525    0.65906    0.54135    1.000
    N3883    N        0.70558    0.74730    0.55235    1.000
    N3884    N        0.71197    0.68080    0.57914    1.000
    Si3885   Si       0.64416    0.69864    0.52998    1.000
    N3886    N        0.55429    0.58376    0.61377    1.000
    Si3887   Si       0.58561    0.55416    0.61726    1.000
    N3888    N        0.58723    0.51396    0.60128    1.000
    Si3889   Si       0.55388    0.62417    0.63261    1.000
    N3890    N        0.62100    0.57155    0.59499    1.000
    Si3891   Si       0.64206    0.60676    0.60794    1.000
    N3892    N        0.68281    0.62295    0.60247    1.000
    Si3893   Si       0.69445    0.52064    0.60412    1.000
    N3894    N        0.70989    0.55799    0.58828    1.000
    Si3895   Si       0.71668    0.60015    0.58762    1.000
    N3896    N        0.51964    0.72366    0.60495    1.000
    Si3897   Si       0.54875    0.69589    0.62011    1.000
    N3898    N        0.59000    0.69952    0.60630    1.000
    N3899    N        0.52929    0.65604    0.61256    1.000
    Si3900   Si       0.49295    0.75345    0.62148    1.000
    N3901    N        0.65415    0.67979    0.62796    1.000
    Si3902   Si       0.61450    0.73336    0.59513    1.000
    Si3903   Si       0.61305    0.66623    0.62242    1.000
    N3904    N        0.63200    0.74686    0.63312    1.000
    N3905    N        0.61639    0.63888    0.58994    1.000
    N3906    N        0.70166    0.72676    0.62476    1.000
    Si3907   Si       0.69331    0.66112    0.61941    1.000
    N3908    N        0.59619    0.54656    0.65977    1.000
    Si3909   Si       0.50640    0.58903    0.68947    1.000
    N3910    N        0.52088    0.62168    0.66531    1.000
    N3911    N        0.53205    0.55513    0.69373    1.000
    Si3912   Si       0.57440    0.56386    0.69633    1.000
    Si3913   Si       0.62774    0.52097    0.67720    1.000
    Si3914   Si       0.69380    0.54371    0.68149    1.000
    N3915    N        0.71472    0.58018    0.66871    1.000
    Si3916   Si       0.68600    0.61405    0.66923    1.000
    N3917    N        0.65287    0.55535    0.68983    1.000
    N3918    N        0.64534    0.60764    0.65107    1.000
    N3919    N        0.69220    0.51844    0.64726    1.000
    Si3920   Si       0.63484    0.59433    0.69052    1.000
    Si3921   Si       0.57786    0.67290    0.68659    1.000
    Si3922   Si       0.51206    0.71411    0.68158    1.000
    N3923    N        0.55104    0.70228    0.66522    1.000
    N3924    N        0.49495    0.74987    0.66446    1.000
    N3925    N        0.58342    0.64890    0.65009    1.000
    Si3926   Si       0.49578    0.65105    0.64360    1.000
    N3927    N        0.61690    0.68129    0.69879    1.000
    N3928    N        0.70525    0.64905    0.66016    1.000
    N3929    N        0.67215    0.72697    0.68805    1.000
    Si3930   Si       0.66605    0.71887    0.64647    1.000
    Si3931   Si       0.57329    0.62080    0.73518    1.000
    N3932    N        0.58926    0.53624    0.72728    1.000
    Si3933   Si       0.51787    0.52190    0.71787    1.000
    N3934    N        0.55036    0.58833    0.75004    1.000
    Si3935   Si       0.51020    0.57924    0.76018    1.000
    N3936    N        0.51895    0.53499    0.75906    1.000
    N3937    N        0.59723    0.59972    0.70543    1.000
    Si3938   Si       0.65621    0.53420    0.73493    1.000
    N3939    N        0.69921    0.52997    0.72163    1.000
    Si3940   Si       0.67762    0.60570    0.74922    1.000
    Si3941   Si       0.72474    0.54847    0.75174    1.000
    N3942    N        0.71909    0.59107    0.74838    1.000
    N3943    N        0.65348    0.57110    0.75576    1.000
    N3944    N        0.66822    0.61739    0.70848    1.000
    N3945    N        0.55495    0.65779    0.72070    1.000
    Si3946   Si       0.53691    0.69117    0.74498    1.000
    N3947    N        0.51841    0.72291    0.72482    1.000
    Si3948   Si       0.59690    0.74530    0.74681    1.000
    N3949    N        0.60515    0.74659    0.70103    1.000
    Si3950   Si       0.63810    0.71728    0.71026    1.000
    Si3951   Si       0.70983    0.73349    0.70689    1.000
    N3952    N        0.73583    0.65434    0.72730    1.000
    N3953    N        0.63918    0.73375    0.75171    1.000
    Si3954   Si       0.73017    0.68530    0.75692    1.000
    N3955    N        0.70727    0.72209    0.74808    1.000
    N3956    N        0.59143    0.56960    0.79382    1.000
    Si3957   Si       0.59009    0.60883    0.80668    1.000
    N3958    N        0.49602    0.59913    0.79659    1.000
    Si3959   Si       0.56404    0.54736    0.76400    1.000
    N3960    N        0.57604    0.50547    0.78144    1.000
    Si3961   Si       0.62180    0.53920    0.80465    1.000
    N3962    N        0.70796    0.53480    0.79004    1.000
    Si3963   Si       0.72259    0.61901    0.79277    1.000
    N3964    N        0.64219    0.51292    0.77589    1.000
    N3965    N        0.67766    0.62707    0.78587    1.000
    N3966    N        0.59288    0.63533    0.77216    1.000
    N3967    N        0.50873    0.67524    0.77071    1.000
    Si3968   Si       0.55613    0.72530    0.80679    1.000
    Si3969   Si       0.59322    0.67733    0.78507    1.000
    N3970    N        0.51432    0.73184    0.81038    1.000
    N3971    N        0.56735    0.68406    0.82102    1.000
    N3972    N        0.57223    0.71140    0.76436    1.000
    Si3973   Si       0.49103    0.69671    0.80524    1.000
    N3974    N        0.73195    0.66321    0.79797    1.000
    Si3975   Si       0.65303    0.64610    0.81502    1.000
    N3976    N        0.63274    0.68262    0.79851    1.000
    Si3977   Si       0.67667    0.74960    0.76571    1.000
    N3978    N        0.68209    0.74332    0.80864    1.000
    N3979    N        0.53088    0.55423    0.85108    1.000
    Si3980   Si       0.51645    0.59166    0.83270    1.000
    N3981    N        0.59877    0.52101    0.83712    1.000
    N3982    N        0.55211    0.61535    0.82749    1.000
    N3983    N        0.49625    0.60397    0.87097    1.000
    Si3984   Si       0.59118    0.52162    0.87974    1.000
    N3985    N        0.71519    0.59435    0.82792    1.000
    Si3986   Si       0.71251    0.61014    0.86873    1.000
    Si3987   Si       0.64157    0.58274    0.85796    1.000
    N3988    N        0.71303    0.53614    0.86240    1.000
    N3989    N        0.62580    0.61360    0.83025    1.000
    N3990    N        0.65428    0.55471    0.82792    1.000
    Si3991   Si       0.69712    0.55462    0.82662    1.000
    N3992    N        0.67190    0.60733    0.87778    1.000
    N3993    N        0.49852    0.66004    0.82840    1.000
    Si3994   Si       0.54192    0.65564    0.84045    1.000
    Si3995   Si       0.60158    0.74606    0.86291    1.000
    N3996    N        0.58425    0.75355    0.82444    1.000
    N3997    N        0.54848    0.66234    0.88251    1.000
    Si3998   Si       0.65476    0.71173    0.81820    1.000
    Si3999   Si       0.72205    0.67935    0.83715    1.000
    N4000    N        0.67841    0.67626    0.84088    1.000
    Si4001   Si       0.71464    0.75158    0.83484    1.000
    N4002    N        0.63714    0.72206    0.85531    1.000
    N4003    N        0.73353    0.64889    0.86622    1.000
    Si4004   Si       0.65829    0.69074    0.87695    1.000
    Si4005   Si       0.53164    0.57822    0.89374    1.000
    N4006    N        0.55592    0.54019    0.90419    1.000
    N4007    N        0.54817    0.60928    0.91942    1.000
    N4008    N        0.49561    0.55573    0.90945    1.000
    Si4009   Si       0.52529    0.52089    0.87923    1.000
    N4010    N        0.73823    0.51979    0.92529    1.000
    N4011    N        0.61917    0.55769    0.88756    1.000
    N4012    N        0.73178    0.58912    0.90064    1.000
    Si4013   Si       0.63027    0.56513    0.93031    1.000
    N4014    N        0.66296    0.53250    0.93447    1.000
    Si4015   Si       0.65401    0.63124    0.91025    1.000
    N4016    N        0.50822    0.73179    0.90000    1.000
    N4017    N        0.57947    0.71946    0.88978    1.000
    Si4018   Si       0.58798    0.67784    0.89439    1.000
    Si4019   Si       0.54982    0.74070    0.91488    1.000
    Si4020   Si       0.52584    0.64840    0.91666    1.000
    N4021    N        0.57953    0.66437    0.93841    1.000
    N4022    N        0.62873    0.66138    0.89091    1.000
    Si4023   Si       0.68189    0.74710    0.91299    1.000
    N4024    N        0.68199    0.70343    0.91161    1.000
    N4025    N        0.59725    0.55209    0.95413    1.000
    N4026    N        0.52791    0.55286    0.96539    1.000
    Si4027   Si       0.56159    0.52999    0.94718    1.000
    N4028    N        0.57368    0.61229    0.98342    1.000
    Si4029   Si       0.58459    0.62042    0.94215    1.000
    Si4030   Si       0.48757    0.54762    0.95104    1.000
    Si4031   Si       0.54722    0.57944    0.99619    1.000
    N4032    N        0.71026    0.57059    0.96627    1.000
    Si4033   Si       0.65575    0.61954    0.97902    1.000
    Si4034   Si       0.70349    0.53293    0.94932    1.000
    Si4035   Si       0.71794    0.60533    0.94092    1.000
    N4036    N        0.62775    0.60890    0.93715    1.000
    N4037    N        0.51675    0.66549    0.95653    1.000
    N4038    N        0.54913    0.73132    0.95720    1.000
    Si4039   Si       0.55338    0.68837    0.96294    1.000
    N4040    N        0.69121    0.69461    0.98443    1.000
    N4041    N        0.70636    0.76027    0.94564    1.000
    Si4042   Si       0.69803    0.67884    0.94503    1.000
    N4043    N        0.63882    0.73139    0.99290    1.000
    N4044    N        0.68473    0.63643    0.94212    1.000
    N4045    N        0.73950    0.68866    0.93994    1.000
    N4046    N        0.63218    0.65218    0.99796    1.000
    N4047    N        0.52610    0.86126    0.00953    1.000
    Si4048   Si       0.51013    0.78492    0.04264    1.000
    N4049    N        0.53012    0.79112    0.00456    1.000
    Si4050   Si       0.52823    0.84723    0.05080    1.000
    N4051    N        0.60584    0.84200    0.00092    1.000
    N4052    N        0.62354    0.78354    0.04058    1.000
    Si4053   Si       0.63932    0.81782    0.01807    1.000
    N4054    N        0.66049    0.84750    0.04069    1.000
    Si4055   Si       0.51485    0.95005    0.03068    1.000
    Si4056   Si       0.59410    0.94088    0.03114    1.000
    N4057    N        0.50291    0.99062    0.01215    1.000
    N4058    N        0.55192    0.93385    0.04082    1.000
    Si4059   Si       0.58036    0.00473    0.00479    1.000
    N4060    N        0.58984    0.96377    0.99572    1.000
    Si4061   Si       0.64743    0.99392    0.02700    1.000
    N4062    N        0.62040    0.90546    0.02673    1.000
    N4063    N        0.62090    0.97041    0.05416    1.000
    Si4064   Si       0.64903    0.88671    0.05489    1.000
    Si4065   Si       0.70262    0.95188    0.04711    1.000
    N4066    N        0.72376    0.94716    0.00897    1.000
    N4067    N        0.68598    0.99352    0.04907    1.000
    N4068    N        0.68442    0.91399    0.05688    1.000
    Si4069   Si       0.55789    0.78146    0.08779    1.000
    N4070    N        0.55603    0.81522    0.06254    1.000
    N4071    N        0.51534    0.87853    0.07882    1.000
    N4072    N        0.49365    0.82138    0.06281    1.000
    N4073    N        0.52441    0.75812    0.07564    1.000
    Si4074   Si       0.65685    0.83795    0.10351    1.000
    Si4075   Si       0.62536    0.77506    0.08229    1.000
    N4076    N        0.68877    0.80606    0.09393    1.000
    N4077    N        0.62373    0.81044    0.10597    1.000
    N4078    N        0.63853    0.87828    0.09527    1.000
    Si4079   Si       0.72832    0.79949    0.11271    1.000
    Si4080   Si       0.69322    0.76432    0.07567    1.000
    N4081    N        0.72425    0.88025    0.11223    1.000
    N4082    N        0.50618    0.97419    0.07169    1.000
    N4083    N        0.60553    0.94063    0.11537    1.000
    Si4084   Si       0.50253    0.96083    0.11246    1.000
    N4085    N        0.73192    0.94550    0.07937    1.000
    Si4086   Si       0.62148    0.97985    0.09579    1.000
    Si4087   Si       0.70436    0.91463    0.09466    1.000
    N4088    N        0.55569    0.79624    0.12721    1.000
    Si4089   Si       0.52297    0.79345    0.15483    1.000
    Si4090   Si       0.59695    0.80483    0.13967    1.000
    N4091    N        0.59907    0.84008    0.16334    1.000
    Si4092   Si       0.56148    0.86019    0.16743    1.000
    N4093    N        0.49214    0.79242    0.12733    1.000
    N4094    N        0.61403    0.76949    0.15896    1.000
    N4095    N        0.66868    0.84939    0.14544    1.000
    Si4096   Si       0.71063    0.86083    0.14936    1.000
    N4097    N        0.73419    0.82436    0.14900    1.000
    Si4098   Si       0.51007    0.88656    0.12242    1.000
    N4099    N        0.54870    0.89145    0.13928    1.000
    Si4100   Si       0.55788    0.98200    0.16410    1.000
    Si4101   Si       0.56902    0.92800    0.13541    1.000
    N4102    N        0.54147    0.96177    0.12855    1.000
    N4103    N        0.67709    0.92944    0.12386    1.000
    N4104    N        0.65790    0.99499    0.11659    1.000
    N4105    N        0.70973    0.98036    0.16415    1.000
    Si4106   Si       0.67223    0.96729    0.14626    1.000
    Si4107   Si       0.63748    0.91142    0.12349    1.000
    N4108    N        0.62475    0.90100    0.16436    1.000
    Si4109   Si       0.51778    0.85594    0.21084    1.000
    N4110    N        0.53175    0.82951    0.17704    1.000
    N4111    N        0.66439    0.79182    0.20864    1.000
    N4112    N        0.64463    0.85874    0.21655    1.000
    Si4113   Si       0.73109    0.85552    0.22026    1.000
    N4114    N        0.71828    0.88163    0.18536    1.000
    Si4115   Si       0.63524    0.85916    0.17377    1.000
    N4116    N        0.55272    0.88441    0.20688    1.000
    N4117    N        0.52567    0.99447    0.19083    1.000
    N4118    N        0.50817    0.93281    0.18499    1.000
    Si4119   Si       0.54768    0.92685    0.20470    1.000
    N4120    N        0.57616    0.94484    0.17909    1.000
    Si4121   Si       0.71362    0.99047    0.20794    1.000
    Si4122   Si       0.61667    0.93439    0.19052    1.000
    N4123    N        0.64263    0.96923    0.17804    1.000
    N4124    N        0.71089    0.95021    0.22452    1.000
    Si4125   Si       0.73123    0.91849    0.20415    1.000
    N4126    N        0.52124    0.77367    0.25795    1.000
    N4127    N        0.51092    0.84090    0.25063    1.000
    Si4128   Si       0.52198    0.81315    0.28197    1.000
    N4129    N        0.62197    0.86615    0.27843    1.000
    N4130    N        0.65075    0.80051    0.26693    1.000
    N4131    N        0.70273    0.84277    0.24865    1.000
    Si4132   Si       0.70289    0.87184    0.28247    1.000
    Si4133   Si       0.66636    0.82580    0.23390    1.000
    Si4134   Si       0.51502    0.95021    0.26467    1.000
    Si4135   Si       0.58824    0.94193    0.26485    1.000
    N4136    N        0.55115    0.94438    0.24393    1.000
    N4137    N        0.59872    0.98031    0.28020    1.000
    N4138    N        0.50088    0.99066    0.25783    1.000
    Si4139   Si       0.63084    0.99748    0.25601    1.000
    N4140    N        0.61533    0.92506    0.23355    1.000
    N4141    N        0.67698    0.90306    0.26594    1.000
    Si4142   Si       0.69457    0.94206    0.26399    1.000
    Si4143   Si       0.63817    0.88953    0.24621    1.000
    N4144    N        0.66613    0.97359    0.26626    1.000
    N4145    N        0.55010    0.79548    0.31145    1.000
    N4146    N        0.56826    0.85871    0.33069    1.000
    Si4147   Si       0.57814    0.81681    0.33492    1.000
    N4148    N        0.62036    0.81009    0.32132    1.000
    N4149    N        0.67947    0.85258    0.31328    1.000
    Si4150   Si       0.62780    0.76935    0.29760    1.000
    Si4151   Si       0.64564    0.83272    0.29732    1.000
    Si4152   Si       0.67580    0.87863    0.34752    1.000
    Si4153   Si       0.60016    0.88317    0.31406    1.000
    Si4154   Si       0.55341    0.94051    0.33003    1.000
    N4155    N        0.51675    0.95806    0.30990    1.000
    N4156    N        0.58254    0.92082    0.30328    1.000
    Si4157   Si       0.60539    0.99190    0.32041    1.000
    Si4158   Si       0.50506    0.99981    0.30033    1.000
    N4159    N        0.57621    0.97421    0.34691    1.000
    Si4160   Si       0.49212    0.93553    0.33861    1.000
    N4161    N        0.63031    0.88169    0.34577    1.000
    N4162    N        0.73536    0.88473    0.30547    1.000
    N4163    N        0.72642    0.95090    0.29449    1.000
    N4164    N        0.64515    0.97392    0.33332    1.000
    Si4165   Si       0.67011    0.99610    0.30305    1.000
    Si4166   Si       0.73088    0.92229    0.32794    1.000
    N4167    N        0.69167    0.91902    0.34551    1.000
    N4168    N        0.58686    0.80299    0.37486    1.000
    N4169    N        0.53419    0.84585    0.38950    1.000
    Si4170   Si       0.55200    0.80823    0.39968    1.000
    Si4171   Si       0.54915    0.87714    0.36675    1.000
    N4172    N        0.52367    0.77463    0.40377    1.000
    Si4173   Si       0.62403    0.78663    0.36012    1.000
    N4174    N        0.68706    0.86204    0.38513    1.000
    N4175    N        0.65850    0.78905    0.38505    1.000
    N4176    N        0.72425    0.80475    0.38887    1.000
    Si4177   Si       0.68512    0.81991    0.39877    1.000
    Si4178   Si       0.73582    0.76499    0.37659    1.000
    N4179    N        0.57839    0.89625    0.39384    1.000
    Si4180   Si       0.57587    0.98557    0.38691    1.000
    N4181    N        0.52650    0.91333    0.35260    1.000
    Si4182   Si       0.62201    0.88791    0.38923    1.000
    N4183    N        0.67684    0.98001    0.38958    1.000
    N4184    N        0.64538    0.92307    0.39554    1.000
    Si4185   Si       0.70625    0.00641    0.36952    1.000
    Si4186   Si       0.66309    0.94724    0.36215    1.000
    N4187    N        0.55928    0.80529    0.44313    1.000
    Si4188   Si       0.51828    0.78418    0.44807    1.000
    N4189    N        0.49450    0.87380    0.46968    1.000
    N4190    N        0.61803    0.86162    0.42688    1.000
    N4191    N        0.67782    0.82578    0.44149    1.000
    Si4192   Si       0.65253    0.85879    0.45321    1.000
    Si4193   Si       0.67509    0.79055    0.46598    1.000
    N4194    N        0.73941    0.85922    0.43171    1.000
    Si4195   Si       0.58109    0.88664    0.43853    1.000
    N4196    N        0.60375    0.97633    0.41622    1.000
    Si4197   Si       0.51261    0.94778    0.42717    1.000
    N4198    N        0.54344    0.91905    0.44481    1.000
    Si4199   Si       0.57630    0.95162    0.44470    1.000
    N4200    N        0.60710    0.92143    0.45464    1.000
    N4201    N        0.49881    0.97518    0.45969    1.000
    N4202    N        0.53914    0.97569    0.40881    1.000
    Si4203   Si       0.64487    0.99128    0.41661    1.000
    N4204    N        0.65644    0.97071    0.45416    1.000
    Si4205   Si       0.64705    0.92981    0.44001    1.000
    N4206    N        0.73132    0.92037    0.41141    1.000
    N4207    N        0.67581    0.89550    0.44750    1.000
    N4208    N        0.72920    0.99204    0.44234    1.000
    Si4209   Si       0.70720    0.88512    0.41822    1.000
    Si4210   Si       0.73739    0.96336    0.41033    1.000
    N4211    N        0.51546    0.81107    0.48833    1.000
    N4212    N        0.57952    0.80749    0.51743    1.000
    Si4213   Si       0.55775    0.82414    0.48112    1.000
    N4214    N        0.56441    0.86574    0.47300    1.000
    Si4215   Si       0.50336    0.79144    0.52603    1.000
    Si4216   Si       0.62321    0.81761    0.51713    1.000
    N4217    N        0.71799    0.86536    0.51376    1.000
    N4218    N        0.63426    0.79207    0.48065    1.000
    N4219    N        0.63987    0.85497    0.49548    1.000
    N4220    N        0.69926    0.79457    0.50107    1.000
    Si4221   Si       0.72722    0.82139    0.52104    1.000
    Si4222   Si       0.74275    0.86476    0.47588    1.000
    Si4223   Si       0.53357    0.99561    0.48007    1.000
    Si4224   Si       0.59051    0.95280    0.51498    1.000
    N4225    N        0.56858    0.97071    0.48163    1.000
    Si4226   Si       0.53072    0.89440    0.47905    1.000
    N4227    N        0.52733    0.91348    0.51574    1.000
    N4228    N        0.51777    0.00623    0.51945    1.000
    N4229    N        0.71955    0.93774    0.52655    1.000
    Si4230   Si       0.65096    0.99286    0.49099    1.000
    N4231    N        0.69212    0.00022    0.50185    1.000
    N4232    N        0.63259    0.96641    0.52014    1.000
    Si4233   Si       0.57436    0.76993    0.54117    1.000
    N4234    N        0.50520    0.82694    0.55113    1.000
    N4235    N        0.53008    0.76238    0.54205    1.000
    N4236    N        0.58880    0.76498    0.58043    1.000
    N4237    N        0.61705    0.85057    0.55426    1.000
    N4238    N        0.64603    0.79275    0.54534    1.000
    Si4239   Si       0.64766    0.82675    0.57346    1.000
    N4240    N        0.68947    0.83347    0.57602    1.000
    Si4241   Si       0.67650    0.76806    0.52830    1.000
    Si4242   Si       0.62829    0.88334    0.52707    1.000
    N4243    N        0.59661    0.91178    0.52239    1.000
    Si4244   Si       0.53063    0.99205    0.55780    1.000
    Si4245   Si       0.54078    0.92781    0.55510    1.000
    N4246    N        0.56654    0.96636    0.55078    1.000
    N4247    N        0.50788    0.95546    0.56669    1.000
    N4248    N        0.54723    0.89415    0.58133    1.000
    N4249    N        0.66229    0.90569    0.54178    1.000
    Si4250   Si       0.70885    0.97921    0.53618    1.000
    N4251    N        0.67957    0.97576    0.56947    1.000
    Si4252   Si       0.70357    0.89720    0.54037    1.000
    Si4253   Si       0.65117    0.94518    0.55370    1.000
    N4254    N        0.72511    0.88741    0.57753    1.000
    N4255    N        0.73470    0.00800    0.55502    1.000
    Si4256   Si       0.59121    0.79907    0.60902    1.000
    N4257    N        0.50439    0.79410    0.61704    1.000
    N4258    N        0.56162    0.82959    0.59288    1.000
    N4259    N        0.49384    0.85572    0.61027    1.000
    Si4260   Si       0.51959    0.82500    0.59022    1.000
    Si4261   Si       0.49083    0.82663    0.64377    1.000
    Si4262   Si       0.58411    0.86731    0.58117    1.000
    Si4263   Si       0.71283    0.85321    0.60524    1.000
    N4264    N        0.63051    0.81791    0.61150    1.000
    N4265    N        0.69041    0.85009    0.64456    1.000
    N4266    N        0.60826    0.88940    0.60778    1.000
    Si4267   Si       0.51878    0.88951    0.61339    1.000
    N4268    N        0.57557    0.95438    0.62374    1.000
    Si4269   Si       0.58535    0.97962    0.58924    1.000
    Si4270   Si       0.61220    0.92990    0.62030    1.000
    N4271    N        0.62407    0.95323    0.58610    1.000
    N4272    N        0.66401    0.99525    0.63651    1.000
    Si4273   Si       0.65198    0.99818    0.59447    1.000
    Si4274   Si       0.73625    0.98821    0.63878    1.000
    Si4275   Si       0.55338    0.81104    0.67975    1.000
    N4276    N        0.52424    0.84090    0.66838    1.000
    N4277    N        0.58061    0.78966    0.65090    1.000
    Si4278   Si       0.51460    0.88096    0.68206    1.000
    Si4279   Si       0.61489    0.77003    0.66690    1.000
    N4280    N        0.62929    0.86206    0.67091    1.000
    Si4281   Si       0.70695    0.86796    0.67991    1.000
    N4282    N        0.64217    0.80212    0.67736    1.000
    Si4283   Si       0.65148    0.83241    0.64729    1.000
    N4284    N        0.51343    0.96973    0.65994    1.000
    Si4285   Si       0.54888    0.94411    0.65332    1.000
    N4286    N        0.53511    0.90283    0.65040    1.000
    N4287    N        0.56376    0.95214    0.69387    1.000
    Si4288   Si       0.53064    0.98082    0.69910    1.000
    Si4289   Si       0.67386    0.95933    0.66201    1.000
    N4290    N        0.64257    0.93093    0.65190    1.000
    N4291    N        0.71668    0.95174    0.65551    1.000
    N4292    N        0.68132    0.89938    0.69341    1.000
    Si4293   Si       0.64012    0.90147    0.68147    1.000
    Si4294   Si       0.56104    0.81241    0.74019    1.000
    N4295    N        0.53663    0.78874    0.71264    1.000
    Si4296   Si       0.51200    0.76372    0.73961    1.000
    N4297    N        0.58368    0.82875    0.70758    1.000
    N4298    N        0.64294    0.84485    0.74185    1.000
    Si4299   Si       0.71731    0.80619    0.73487    1.000
    N4300    N        0.71780    0.84484    0.71430    1.000
    N4301    N        0.68265    0.79111    0.75771    1.000
    N4302    N        0.72236    0.77447    0.70709    1.000
    Si4303   Si       0.62579    0.83396    0.70431    1.000
    N4304    N        0.60365    0.98165    0.73739    1.000
    N4305    N        0.51554    0.90112    0.71895    1.000
    Si4306   Si       0.58825    0.94052    0.72739    1.000
    Si4307   Si       0.52064    0.93300    0.74896    1.000
    N4308    N        0.51360    0.97409    0.73883    1.000
    N4309    N        0.56229    0.92586    0.76081    1.000
    N4310    N        0.67020    0.96426    0.70592    1.000
    Si4311   Si       0.64432    0.99349    0.72655    1.000
    Si4312   Si       0.63563    0.88759    0.75078    1.000
    N4313    N        0.72931    0.93016    0.72293    1.000
    Si4314   Si       0.68614    0.92886    0.72485    1.000
    N4315    N        0.61909    0.91002    0.71916    1.000
    N4316    N        0.67179    0.90719    0.76082    1.000
    Si4317   Si       0.52813    0.82988    0.79355    1.000
    N4318    N        0.51571    0.79025    0.77688    1.000
    Si4319   Si       0.59538    0.79190    0.80472    1.000
    N4320    N        0.49580    0.85003    0.81469    1.000
    Si4321   Si       0.49416    0.76999    0.81031    1.000
    N4322    N        0.54775    0.85113    0.76235    1.000
    N4323    N        0.58578    0.78503    0.76198    1.000
    N4324    N        0.56377    0.82075    0.81634    1.000
    Si4325   Si       0.66205    0.82326    0.77560    1.000
    N4326    N        0.69709    0.84689    0.79156    1.000
    N4327    N        0.63524    0.80857    0.80594    1.000
    Si4328   Si       0.73400    0.82616    0.80185    1.000
    N4329    N        0.61030    0.88530    0.78655    1.000
    N4330    N        0.49111    0.92374    0.77908    1.000
    Si4331   Si       0.56547    0.88703    0.78104    1.000
    N4332    N        0.49535    0.99963    0.80778    1.000
    N4333    N        0.60984    0.99752    0.81401    1.000
    N4334    N        0.66454    0.00564    0.76380    1.000
    Si4335   Si       0.65218    0.00464    0.80683    1.000
    Si4336   Si       0.71822    0.95651    0.81365    1.000
    Si4337   Si       0.68927    0.89100    0.79714    1.000
    N4338    N        0.72919    0.97205    0.77455    1.000
    N4339    N        0.72559    0.91285    0.80727    1.000
    Si4340   Si       0.56793    0.84960    0.84886    1.000
    N4341    N        0.50138    0.78660    0.84954    1.000
    Si4342   Si       0.49623    0.83045    0.85402    1.000
    N4343    N        0.61018    0.85636    0.85196    1.000
    N4344    N        0.53422    0.84071    0.87445    1.000
    N4345    N        0.61745    0.78805    0.86842    1.000
    Si4346   Si       0.63618    0.82130    0.84966    1.000
    N4347    N        0.67683    0.83073    0.86053    1.000
    Si4348   Si       0.71039    0.80616    0.86732    1.000
    Si4349   Si       0.67606    0.87311    0.86600    1.000
    N4350    N        0.72783    0.79322    0.82969    1.000
    N4351    N        0.70043    0.76282    0.87649    1.000
    Si4352   Si       0.52870    0.91592    0.84705    1.000
    Si4353   Si       0.58885    0.96893    0.83998    1.000
    N4354    N        0.54974    0.95415    0.84460    1.000
    N4355    N        0.55565    0.88781    0.82567    1.000
    Si4356   Si       0.61770    0.89249    0.82755    1.000
    N4357    N        0.61447    0.93532    0.83737    1.000
    Si4358   Si       0.65569    0.93982    0.84815    1.000
    N4359    N        0.67641    0.96706    0.82201    1.000
    N4360    N        0.71295    0.89527    0.87297    1.000
    N4361    N        0.66215    0.89616    0.83214    1.000
    Si4362   Si       0.54100    0.81493    0.91211    1.000
    N4363    N        0.56705    0.78122    0.90746    1.000
    N4364    N        0.50163    0.80044    0.91775    1.000
    Si4365   Si       0.61034    0.78988    0.91038    1.000
    N4366    N        0.65691    0.87930    0.90435    1.000
    N4367    N        0.61882    0.82545    0.93247    1.000
    N4368    N        0.64241    0.76294    0.92599    1.000
    N4369    N        0.59267    0.97964    0.88471    1.000
    Si4370   Si       0.49939    0.91186    0.91860    1.000
    N4371    N        0.53210    0.91748    0.89131    1.000
    Si4372   Si       0.54898    0.95922    0.88880    1.000
    N4373    N        0.51219    0.98735    0.88670    1.000
    N4374    N        0.55485    0.96625    0.93417    1.000
    N4375    N        0.64969    0.00923    0.92041    1.000
    Si4376   Si       0.72046    0.91536    0.91104    1.000
    N4377    N        0.65919    0.94474    0.88997    1.000
    Si4378   Si       0.62942    0.97284    0.90837    1.000
    Si4379   Si       0.65277    0.91652    0.93113    1.000
    N4380    N        0.59677    0.77856    0.97712    1.000
    Si4381   Si       0.59327    0.82073    0.96653    1.000
    Si4382   Si       0.52161    0.82665    0.98176    1.000
    N4383    N        0.55357    0.82796    0.95272    1.000
    Si4384   Si       0.55754    0.76268    0.98689    1.000
    N4385    N        0.50547    0.88091    0.94933    1.000
    Si4386   Si       0.70064    0.79909    0.96761    1.000
    N4387    N        0.66226    0.79947    0.98670    1.000
    Si4388   Si       0.63853    0.76741    0.96827    1.000
    N4389    N        0.69715    0.83330    0.93992    1.000
    N4390    N        0.73563    0.79730    0.99500    1.000
    Si4391   Si       0.65630    0.85064    0.93824    1.000
    Si4392   Si       0.61028    0.88491    0.98908    1.000
    Si4393   Si       0.53100    0.89526    0.98321    1.000
    N4394    N        0.57360    0.90253    0.97601    1.000
    N4395    N        0.51365    0.93582    0.98571    1.000
    Si4396   Si       0.57978    0.94182    0.95925    1.000
    Si4397   Si       0.48807    0.96998    0.97286    1.000
    N4398    N        0.69291    0.92838    0.94286    1.000
    N4399    N        0.66635    0.98103    0.98705    1.000
    N4400    N        0.71581    0.99253    0.95059    1.000
    Si4401   Si       0.69820    0.95620    0.97454    1.000
    N4402    N        0.64509    0.88330    0.96447    1.000
    N4403    N        0.61914    0.94366    0.93956    1.000
    N4404    N        0.77348    0.09555    0.02843    1.000
    N4405    N        0.79872    0.02603    0.01973    1.000
    Si4406   Si       0.83820    0.04182    0.01537    1.000
    Si4407   Si       0.76487    0.05342    0.01612    1.000
    Si4408   Si       0.80163    0.11044    0.00002    1.000
    N4409    N        0.84908    0.05591    0.05330    1.000
    Si4410   Si       0.73504    0.12405    0.03043    1.000
    N4411    N        0.91587    0.06559    0.02781    1.000
    Si4412   Si       0.95726    0.05591    0.03363    1.000
    N4413    N        0.97379    0.01520    0.03832    1.000
    N4414    N        0.82232    0.14487    0.01937    1.000
    Si4415   Si       0.84942    0.24625    0.01879    1.000
    N4416    N        0.74486    0.16610    0.02202    1.000
    Si4417   Si       0.91398    0.25571    0.04975    1.000
    Si4418   Si       0.89221    0.18714    0.04385    1.000
    N4419    N        0.88791    0.22867    0.03161    1.000
    N4420    N        0.95179    0.24538    0.03144    1.000
    Si4421   Si       0.95998    0.20168    0.03696    1.000
    N4422    N        0.88750    0.16881    0.00312    1.000
    Si4423   Si       0.82460    0.04080    0.08676    1.000
    N4424    N        0.78205    0.05674    0.08965    1.000
    Si4425   Si       0.77883    0.09759    0.07200    1.000
    N4426    N        0.81222    0.12074    0.08682    1.000
    N4427    N        0.74074    0.11813    0.07559    1.000
    N4428    N        0.90543    0.06572    0.09622    1.000
    N4429    N        0.97110    0.06442    0.07700    1.000
    Si4430   Si       0.94527    0.07937    0.10876    1.000
    N4431    N        0.87901    0.12071    0.06347    1.000
    N4432    N        0.93970    0.12289    0.10569    1.000
    Si4433   Si       0.98845    0.01871    0.08165    1.000
    Si4434   Si       0.88742    0.07758    0.05788    1.000
    Si4435   Si       0.76902    0.24235    0.07073    1.000
    N4436    N        0.78855    0.21013    0.09060    1.000
    Si4437   Si       0.83252    0.21362    0.08180    1.000
    N4438    N        0.85348    0.18135    0.06115    1.000
    N4439    N        0.83461    0.25024    0.05993    1.000
    Si4440   Si       0.84084    0.14024    0.05872    1.000
    Si4441   Si       0.89870    0.13576    0.10247    1.000
    N4442    N        0.91374    0.24147    0.09224    1.000
    Si4443   Si       0.97362    0.14746    0.10913    1.000
    Si4444   Si       0.92531    0.20095    0.10359    1.000
    N4445    N        0.93024    0.18364    0.06214    1.000
    N4446    N        0.98811    0.25130    0.10647    1.000
    N4447    N        0.76719    0.06338    0.15486    1.000
    N4448    N        0.83640    0.05501    0.12631    1.000
    Si4449   Si       0.81165    0.06482    0.16154    1.000
    Si4450   Si       0.82655    0.12395    0.12846    1.000
    Si4451   Si       0.75514    0.03736    0.11985    1.000
    N4452    N        0.82727    0.10680    0.17148    1.000
    N4453    N        0.87170    0.11570    0.12887    1.000
    N4454    N        0.95831    0.07996    0.14992    1.000
    Si4455   Si       0.87694    0.06868    0.12845    1.000
    N4456    N        0.92996    0.01868    0.15229    1.000
    N4457    N        0.89267    0.07232    0.16875    1.000
    Si4458   Si       0.93322    0.05537    0.17455    1.000
    Si4459   Si       0.99011    0.10383    0.16639    1.000
    N4460    N        0.81824    0.16681    0.13332    1.000
    N4461    N        0.76890    0.21726    0.16082    1.000
    Si4462   Si       0.78173    0.18995    0.12852    1.000
    Si4463   Si       0.85751    0.18758    0.14564    1.000
    N4464    N        0.85376    0.22408    0.11842    1.000
    N4465    N        0.74136    0.17403    0.12735    1.000
    N4466    N        0.96309    0.19033    0.12060    1.000
    Si4467   Si       0.88354    0.25484    0.12087    1.000
    N4468    N        0.89439    0.17569    0.11802    1.000
    Si4469   Si       0.98737    0.22068    0.13792    1.000
    N4470    N        0.89779    0.25540    0.16139    1.000
    N4471    N        0.96961    0.24254    0.17218    1.000
    N4472    N        0.81535    0.03331    0.19223    1.000
    Si4473   Si       0.75022    0.08233    0.19001    1.000
    N4474    N        0.76859    0.11845    0.19905    1.000
    Si4475   Si       0.78727    0.02471    0.22556    1.000
    Si4476   Si       0.80872    0.13288    0.20281    1.000
    N4477    N        0.76465    0.06237    0.22794    1.000
    Si4478   Si       0.96852    0.01705    0.22558    1.000
    N4479    N        0.94399    0.05465    0.21541    1.000
    N4480    N        0.97396    0.11715    0.20533    1.000
    N4481    N        0.88523    0.11519    0.21890    1.000
    Si4482   Si       0.90668    0.02872    0.22606    1.000
    Si4483   Si       0.87458    0.11175    0.17451    1.000
    Si4484   Si       0.79805    0.21596    0.19398    1.000
    N4485    N        0.79199    0.17488    0.20768    1.000
    Si4486   Si       0.75309    0.15911    0.21649    1.000
    N4487    N        0.84079    0.21678    0.18070    1.000
    N4488    N        0.79456    0.25355    0.21529    1.000
    N4489    N        0.87050    0.15677    0.17627    1.000
    Si4490   Si       0.96572    0.15904    0.21331    1.000
    Si4491   Si       0.98660    0.24339    0.21308    1.000
    Si4492   Si       0.86666    0.25037    0.19209    1.000
    N4493    N        0.92670    0.17764    0.21383    1.000
    Si4494   Si       0.88867    0.15888    0.21613    1.000
    N4495    N        0.88765    0.23881    0.22973    1.000
    Si4496   Si       0.78589    0.08987    0.25560    1.000
    N4497    N        0.81852    0.11888    0.24380    1.000
    N4498    N        0.80219    0.05979    0.28440    1.000
    N4499    N        0.97706    0.01838    0.26899    1.000
    N4500    N        0.93864    0.10378    0.26551    1.000
    N4501    N        0.88988    0.05549    0.25765    1.000
    Si4502   Si       0.89686    0.09834    0.25908    1.000
    N4503    N        0.87349    0.11671    0.29101    1.000
    Si4504   Si       0.96554    0.08669    0.23453    1.000
    Si4505   Si       0.78199    0.26027    0.25708    1.000
    Si4506   Si       0.84381    0.14097    0.27196    1.000
    N4507    N        0.74456    0.15664    0.25717    1.000
    N4508    N        0.78063    0.22753    0.28529    1.000
    N4509    N        0.86776    0.17261    0.25202    1.000
    N4510    N        0.85140    0.22767    0.28966    1.000
    N4511    N        0.81191    0.16349    0.28980    1.000
    N4512    N        0.97179    0.17160    0.25611    1.000
    Si4513   Si       0.87917    0.21181    0.26244    1.000
    N4514    N        0.91697    0.20865    0.28656    1.000
    Si4515   Si       0.94045    0.19979    0.25004    1.000
    N4516    N        0.95345    0.23875    0.24196    1.000
    Si4517   Si       0.79143    0.08201    0.32012    1.000
    N4518    N        0.74722    0.06675    0.32826    1.000
    Si4519   Si       0.81117    0.02030    0.29721    1.000
    N4520    N        0.81723    0.05422    0.34486    1.000
    N4521    N        0.85251    0.01360    0.31141    1.000
    Si4522   Si       0.74091    0.02628    0.31332    1.000
    N4523    N        0.76929    0.11227    0.29115    1.000
    Si4524   Si       0.99038    0.04285    0.34197    1.000
    Si4525   Si       0.88719    0.03651    0.29545    1.000
    N4526    N        0.95463    0.01806    0.34063    1.000
    Si4527   Si       0.96188    0.11014    0.30098    1.000
    Si4528   Si       0.89116    0.10463    0.32897    1.000
    N4529    N        0.89860    0.06195    0.32674    1.000
    N4530    N        0.93139    0.12073    0.33123    1.000
    N4531    N        0.97422    0.07137    0.31207    1.000
    N4532    N        0.75350    0.18379    0.32304    1.000
    N4533    N        0.82863    0.20229    0.34215    1.000
    Si4534   Si       0.81529    0.20629    0.30134    1.000
    Si4535   Si       0.74092    0.22292    0.30249    1.000
    Si4536   Si       0.86434    0.22783    0.33462    1.000
    Si4537   Si       0.77093    0.15388    0.29440    1.000
    N4538    N        0.96433    0.18231    0.33426    1.000
    Si4539   Si       0.93436    0.21245    0.32484    1.000
    N4540    N        0.95619    0.25212    0.33228    1.000
    Si4541   Si       0.82498    0.08739    0.37682    1.000
    N4542    N        0.77952    0.06913    0.39692    1.000
    Si4543   Si       0.77551    0.12610    0.39315    1.000
    Si4544   Si       0.84258    0.02136    0.35782    1.000
    N4545    N        0.79499    0.11351    0.35406    1.000
    N4546    N        0.84524    0.05664    0.40248    1.000
    Si4547   Si       0.86292    0.12702    0.40366    1.000
    N4548    N        0.86309    0.10782    0.36375    1.000
    N4549    N        0.92555    0.05752    0.39344    1.000
    Si4550   Si       0.91834    0.03509    0.35638    1.000
    N4551    N        0.88303    0.01515    0.37533    1.000
    Si4552   Si       0.75304    0.19067    0.36396    1.000
    N4553    N        0.78523    0.17237    0.38633    1.000
    Si4554   Si       0.82417    0.18920    0.38182    1.000
    N4555    N        0.76411    0.23399    0.37105    1.000
    Si4556   Si       0.79325    0.25361    0.39687    1.000
    N4557    N        0.86046    0.16923    0.39613    1.000
    N4558    N        0.82778    0.22786    0.40243    1.000
    Si4559   Si       0.89885    0.18773    0.39018    1.000
    N4560    N        0.92658    0.15434    0.39305    1.000
    Si4561   Si       0.95266    0.14781    0.36016    1.000
    N4562    N        0.89997    0.21131    0.35305    1.000
    Si4563   Si       0.80763    0.05597    0.42650    1.000
    Si4564   Si       0.80137    0.12084    0.45105    1.000
    N4565    N        0.80107    0.07928    0.46066    1.000
    N4566    N        0.82009    0.11696    0.41099    1.000
    N4567    N        0.80415    0.01361    0.43942    1.000
    N4568    N        0.76181    0.13435    0.43637    1.000
    N4569    N        0.89018    0.04167    0.45336    1.000
    N4570    N        0.89103    0.10883    0.43207    1.000
    N4571    N        0.96966    0.04932    0.45340    1.000
    N4572    N        0.96762    0.10441    0.41851    1.000
    Si4573   Si       0.96394    0.06274    0.41221    1.000
    Si4574   Si       0.93165    0.12728    0.42826    1.000
    Si4575   Si       0.88610    0.04744    0.40955    1.000
    N4576    N        0.77039    0.25499    0.43347    1.000
    Si4577   Si       0.75249    0.22637    0.46112    1.000
    N4578    N        0.85290    0.20545    0.46397    1.000
    Si4579   Si       0.85992    0.23022    0.43095    1.000
    Si4580   Si       0.93517    0.23853    0.42351    1.000
    N4581    N        0.90200    0.21024    0.42871    1.000
    Si4582   Si       0.98176    0.17989    0.45134    1.000
    N4583    N        0.94296    0.15606    0.45814    1.000
    N4584    N        0.97295    0.21219    0.42280    1.000
    Si4585   Si       0.78765    0.05506    0.49548    1.000
    N4586    N        0.81923    0.02885    0.51248    1.000
    N4587    N        0.75315    0.03391    0.48109    1.000
    N4588    N        0.85987    0.08952    0.49719    1.000
    Si4589   Si       0.85045    0.13330    0.50377    1.000
    N4590    N        0.93161    0.09492    0.48580    1.000
    Si4591   Si       0.96855    0.07230    0.49141    1.000
    Si4592   Si       0.89077    0.08395    0.46820    1.000
    N4593    N        0.73915    0.15772    0.49911    1.000
    N4594    N        0.81299    0.14407    0.48387    1.000
    Si4595   Si       0.78047    0.16834    0.50561    1.000
    Si4596   Si       0.82391    0.21993    0.49357    1.000
    N4597    N        0.78248    0.20679    0.48591    1.000
    Si4598   Si       0.89481    0.18930    0.46707    1.000
    N4599    N        0.98590    0.20099    0.48976    1.000
    Si4600   Si       0.95362    0.19737    0.51720    1.000
    Si4601   Si       0.92936    0.13720    0.49520    1.000
    N4602    N        0.91363    0.21108    0.50203    1.000
    N4603    N        0.88819    0.14952    0.48845    1.000
    Si4604   Si       0.88512    0.23616    0.52518    1.000
    Si4605   Si       0.76745    0.08446    0.56595    1.000
    N4606    N        0.84333    0.07748    0.56479    1.000
    Si4607   Si       0.85196    0.05550    0.52421    1.000
    N4608    N        0.77945    0.08468    0.52526    1.000
    Si4609   Si       0.86814    0.11370    0.57074    1.000
    N4610    N        0.91018    0.10254    0.56048    1.000
    Si4611   Si       0.92047    0.05986    0.55225    1.000
    N4612    N        0.88961    0.03537    0.53349    1.000
    N4613    N        0.95808    0.05055    0.52837    1.000
    N4614    N        0.76560    0.25284    0.55724    1.000
    Si4615   Si       0.83420    0.18154    0.55658    1.000
    N4616    N        0.79033    0.17542    0.54700    1.000
    N4617    N        0.84989    0.14338    0.54478    1.000
    Si4618   Si       0.76375    0.15864    0.58077    1.000
    N4619    N        0.84959    0.21194    0.52773    1.000
    Si4620   Si       0.93619    0.13947    0.56895    1.000
    N4621    N        0.96414    0.21851    0.55291    1.000
    Si4622   Si       0.93725    0.24848    0.56746    1.000
    N4623    N        0.89245    0.24419    0.56662    1.000
    N4624    N        0.94264    0.15737    0.53091    1.000
    Si4625   Si       0.79058    0.10324    0.63232    1.000
    N4626    N        0.85444    0.02397    0.60034    1.000
    N4627    N        0.82590    0.07973    0.63182    1.000
    Si4628   Si       0.82648    0.05497    0.59749    1.000
    N4629    N        0.77671    0.11777    0.59167    1.000
    N4630    N        0.78474    0.04860    0.58575    1.000
    N4631    N        0.97092    0.12186    0.58536    1.000
    Si4632   Si       0.95746    0.04138    0.62073    1.000
    Si4633   Si       0.89220    0.03007    0.62119    1.000
    N4634    N        0.92290    0.04348    0.59428    1.000
    N4635    N        0.87414    0.12815    0.61166    1.000
    N4636    N        0.97055    0.07799    0.63824    1.000
    Si4637   Si       0.86467    0.09591    0.64414    1.000
    N4638    N        0.85243    0.19470    0.59267    1.000
    Si4639   Si       0.75481    0.23038    0.59292    1.000
    N4640    N        0.76489    0.18852    0.61145    1.000
    Si4641   Si       0.85771    0.24099    0.59407    1.000
    N4642    N        0.86221    0.25392    0.63639    1.000
    Si4643   Si       0.94852    0.20319    0.61625    1.000
    N4644    N        0.94181    0.24683    0.61198    1.000
    N4645    N        0.92021    0.17404    0.59631    1.000
    Si4646   Si       0.88072    0.17111    0.61642    1.000
    N4647    N        0.98841    0.19085    0.60632    1.000
    Si4648   Si       0.75540    0.11792    0.69031    1.000
    N4649    N        0.75689    0.08971    0.65499    1.000
    N4650    N        0.74566    0.01370    0.67240    1.000
    N4651    N        0.86228    0.11346    0.68139    1.000
    Si4652   Si       0.97926    0.05681    0.67707    1.000
    N4653    N        0.94600    0.02468    0.66042    1.000
    Si4654   Si       0.91464    0.04718    0.68645    1.000
    N4655    N        0.89092    0.06129    0.65322    1.000
    Si4656   Si       0.82436    0.13264    0.69018    1.000
    N4657    N        0.80455    0.14067    0.65308    1.000
    N4658    N        0.75336    0.16139    0.68288    1.000
    Si4659   Si       0.85037    0.22260    0.66344    1.000
    N4660    N        0.80935    0.20881    0.65396    1.000
    Si4661   Si       0.78254    0.17720    0.64938    1.000
    N4662    N        0.91068    0.23716    0.70050    1.000
    N4663    N        0.88102    0.19113    0.65553    1.000
    N4664    N        0.95494    0.20008    0.66129    1.000
    Si4665   Si       0.97926    0.22488    0.69077    1.000
    Si4666   Si       0.91447    0.19958    0.68095    1.000
    N4667    N        0.78199    0.04367    0.72295    1.000
    N4668    N        0.79385    0.11160    0.71304    1.000
    Si4669   Si       0.74683    0.06730    0.73774    1.000
    Si4670   Si       0.75634    0.00948    0.71390    1.000
    Si4671   Si       0.80275    0.10107    0.75281    1.000
    Si4672   Si       0.80946    0.03914    0.75832    1.000
    N4673    N        0.94833    0.06823    0.70660    1.000
    N4674    N        0.89949    0.10563    0.74055    1.000
    Si4675   Si       0.94306    0.10038    0.73669    1.000
    N4676    N        0.88650    0.04002    0.71912    1.000
    Si4677   Si       0.87992    0.06836    0.75337    1.000
    N4678    N        0.96298    0.13413    0.71649    1.000
    N4679    N        0.84283    0.15576    0.72235    1.000
    Si4680   Si       0.80529    0.22888    0.72858    1.000
    N4681    N        0.84284    0.22906    0.70760    1.000
    N4682    N        0.76581    0.22809    0.70924    1.000
    Si4683   Si       0.82789    0.16890    0.76320    1.000
    N4684    N        0.79930    0.20114    0.76336    1.000
    Si4685   Si       0.88107    0.13770    0.71515    1.000
    Si4686   Si       0.87681    0.24179    0.72883    1.000
    N4687    N        0.91022    0.17005    0.71179    1.000
    N4688    N        0.96889    0.20589    0.72887    1.000
    Si4689   Si       0.94785    0.16906    0.73398    1.000
    N4690    N        0.76891    0.08071    0.77304    1.000
    N4691    N        0.78983    0.01388    0.78994    1.000
    N4692    N        0.83670    0.07235    0.75663    1.000
    Si4693   Si       0.93321    0.01590    0.78308    1.000
    N4694    N        0.96456    0.03464    0.80666    1.000
    N4695    N        0.90747    0.05110    0.78531    1.000
    N4696    N        0.95773    0.10034    0.77950    1.000
    Si4697   Si       0.94170    0.07101    0.80779    1.000
    N4698    N        0.80462    0.13627    0.77981    1.000
    N4699    N        0.74626    0.22798    0.80446    1.000
    Si4700   Si       0.75972    0.19440    0.78010    1.000
    N4701    N        0.75135    0.16634    0.81483    1.000
    Si4702   Si       0.78944    0.14662    0.81846    1.000
    N4703    N        0.86406    0.16968    0.78600    1.000
    Si4704   Si       0.96584    0.14074    0.79310    1.000
    N4705    N        0.97993    0.22951    0.79762    1.000
    N4706    N        0.89772    0.22710    0.76348    1.000
    Si4707   Si       0.90249    0.19214    0.78604    1.000
    N4708    N        0.93406    0.16587    0.77433    1.000
    N4709    N        0.77811    0.11111    0.84014    1.000
    N4710    N        0.76775    0.04715    0.84427    1.000
    N4711    N        0.84032    0.01954    0.87234    1.000
    N4712    N        0.83300    0.09506    0.87530    1.000
    Si4713   Si       0.76001    0.08147    0.81471    1.000
    Si4714   Si       0.75900    0.01197    0.82089    1.000
    N4715    N        0.95150    0.08217    0.84641    1.000
    Si4716   Si       0.87159    0.11369    0.87921    1.000
    N4717    N        0.89133    0.07356    0.87993    1.000
    N4718    N        0.81940    0.16944    0.84021    1.000
    N4719    N        0.84759    0.24525    0.85081    1.000
    N4720    N        0.76700    0.20473    0.87397    1.000
    Si4721   Si       0.86140    0.16826    0.82972    1.000
    Si4722   Si       0.80601    0.18132    0.87812    1.000
    Si4723   Si       0.92249    0.16519    0.85100    1.000
    N4724    N        0.96173    0.15004    0.83499    1.000
    N4725    N        0.88690    0.13957    0.84882    1.000
    Si4726   Si       0.89140    0.23829    0.84579    1.000
    Si4727   Si       0.98133    0.17041    0.87123    1.000
    N4728    N        0.89932    0.19741    0.83127    1.000
    N4729    N        0.76896    0.08273    0.90364    1.000
    N4730    N        0.83394    0.05239    0.92560    1.000
    Si4731   Si       0.75200    0.04752    0.88648    1.000
    Si4732   Si       0.85133    0.05732    0.88663    1.000
    N4733    N        0.77198    0.01380    0.91039    1.000
    Si4734   Si       0.81569    0.00661    0.90684    1.000
    Si4735   Si       0.79236    0.11035    0.88058    1.000
    N4736    N        0.94532    0.09748    0.91304    1.000
    N4737    N        0.94997    0.03103    0.90234    1.000
    Si4738   Si       0.93367    0.06677    0.88422    1.000
    Si4739   Si       0.97161    0.12782    0.92685    1.000
    Si4740   Si       0.91466    0.11545    0.93789    1.000
    N4741    N        0.88228    0.13362    0.91426    1.000
    N4742    N        0.74196    0.25488    0.92107    1.000
    N4743    N        0.83398    0.25409    0.92394    1.000
    N4744    N        0.84444    0.19384    0.89706    1.000
    Si4745   Si       0.74891    0.21253    0.91502    1.000
    N4746    N        0.79308    0.14759    0.90151    1.000
    Si4747   Si       0.85620    0.23489    0.89304    1.000
    N4748    N        0.89952    0.23590    0.88842    1.000
    Si4749   Si       0.92704    0.21408    0.91251    1.000
    Si4750   Si       0.86918    0.17248    0.92627    1.000
    N4751    N        0.94288    0.18211    0.88697    1.000
    N4752    N        0.96018    0.23797    0.92651    1.000
    N4753    N        0.78010    0.12628    0.96433    1.000
    N4754    N        0.75211    0.06453    0.97546    1.000
    Si4755   Si       0.85458    0.06842    0.95987    1.000
    Si4756   Si       0.75837    0.09476    0.94369    1.000
    N4757    N        0.82870    0.07822    0.99162    1.000
    N4758    N        0.86950    0.03250    0.98256    1.000
    N4759    N        0.89510    0.08431    0.96072    1.000
    N4760    N        0.94360    0.02477    0.97836    1.000
    Si4761   Si       0.90895    0.05154    0.98668    1.000
    Si4762   Si       0.96897    0.03191    0.94366    1.000
    Si4763   Si       0.81356    0.23116    0.95544    1.000
    N4764    N        0.83833    0.16365    0.95476    1.000
    N4765    N        0.83241    0.21640    0.99251    1.000
    Si4766   Si       0.79510    0.16104    0.94354    1.000
    N4767    N        0.78122    0.20254    0.94061    1.000
    Si4768   Si       0.84396    0.17367    0.99690    1.000
    N4769    N        0.94029    0.14482    0.95279    1.000
    Si4770   Si       0.92140    0.17741    0.97441    1.000
    N4771    N        0.90188    0.19689    0.94221    1.000
    N4772    N        0.95882    0.18514    0.99725    1.000
    N4773    N        0.83914    0.29101    0.01487    1.000
    Si4774   Si       0.77611    0.36802    0.00800    1.000
    Si4775   Si       0.75177    0.29648    0.01885    1.000
    N4776    N        0.77881    0.27366    0.04185    1.000
    N4777    N        0.75942    0.36082    0.04854    1.000
    Si4778   Si       0.83866    0.37622    0.04970    1.000
    N4779    N        0.81663    0.37846    0.01241    1.000
    N4780    N        0.77749    0.32397    0.99882    1.000
    Si4781   Si       0.81639    0.28739    0.05214    1.000
    N4782    N        0.86259    0.34096    0.05477    1.000
    Si4783   Si       0.98139    0.26423    0.00777    1.000
    Si4784   Si       0.87216    0.31871    0.01814    1.000
    N4785    N        0.94128    0.35689    0.03649    1.000
    N4786    N        0.90602    0.29891    0.04159    1.000
    Si4787   Si       0.93172    0.32365    0.01179    1.000
    Si4788   Si       0.82863    0.47253    0.03401    1.000
    N4789    N        0.74217    0.50036    0.04115    1.000
    N4790    N        0.86433    0.41022    0.03892    1.000
    Si4791   Si       0.95411    0.39786    0.04384    1.000
    N4792    N        0.97614    0.40939    0.00956    1.000
    Si4793   Si       0.96146    0.50053    0.03266    1.000
    N4794    N        0.87306    0.47422    0.04333    1.000
    Si4795   Si       0.88201    0.46506    0.99858    1.000
    N4796    N        0.80664    0.31540    0.08452    1.000
    Si4797   Si       0.78634    0.35239    0.08199    1.000
    N4798    N        0.75071    0.26532    0.10496    1.000
    N4799    N        0.98953    0.31805    0.08876    1.000
    N4800    N        0.86967    0.29307    0.10812    1.000
    Si4801   Si       0.88864    0.31826    0.07912    1.000
    Si4802   Si       0.95769    0.34537    0.07516    1.000
    N4803    N        0.92192    0.33753    0.09913    1.000
    N4804    N        0.81280    0.38827    0.08184    1.000
    Si4805   Si       0.81446    0.43034    0.09522    1.000
    N4806    N        0.85772    0.44143    0.10139    1.000
    N4807    N        0.80000    0.45645    0.06343    1.000
    Si4808   Si       0.75719    0.46423    0.06075    1.000
    Si4809   Si       0.89169    0.50426    0.06992    1.000
    N4810    N        0.97684    0.47804    0.06809    1.000
    N4811    N        0.97631    0.38411    0.07920    1.000
    Si4812   Si       0.88514    0.43616    0.06646    1.000
    Si4813   Si       0.94665    0.45737    0.08875    1.000
    N4814    N        0.92781    0.43054    0.05971    1.000
    N4815    N        0.90844    0.47833    0.09994    1.000
    N4816    N        0.80143    0.27927    0.14781    1.000
    N4817    N        0.83047    0.33701    0.14598    1.000
    Si4818   Si       0.79055    0.35112    0.15226    1.000
    Si4819   Si       0.82910    0.30204    0.12019    1.000
    N4820    N        0.76367    0.35419    0.11955    1.000
    Si4821   Si       0.76081    0.25968    0.14624    1.000
    N4822    N        0.95070    0.30327    0.14795    1.000
    Si4823   Si       0.93194    0.34188    0.14239    1.000
    N4824    N        0.95959    0.37345    0.14774    1.000
    Si4825   Si       0.98609    0.29040    0.12490    1.000
    N4826    N        0.89990    0.34074    0.17257    1.000
    N4827    N        0.78796    0.43424    0.12987    1.000
    N4828    N        0.85496    0.50011    0.14676    1.000
    Si4829   Si       0.74400    0.43956    0.13105    1.000
    N4830    N        0.90213    0.44907    0.16161    1.000
    N4831    N        0.96233    0.43476    0.12137    1.000
    Si4832   Si       0.98456    0.39764    0.12047    1.000
    N4833    N        0.96091    0.48677    0.16875    1.000
    Si4834   Si       0.94668    0.44616    0.16161    1.000
    Si4835   Si       0.87868    0.46627    0.13111    1.000
    N4836    N        0.78058    0.32574    0.19119    1.000
    Si4837   Si       0.79721    0.36071    0.21226    1.000
    N4838    N        0.84154    0.35460    0.21415    1.000
    Si4839   Si       0.80581    0.28707    0.19012    1.000
    N4840    N        0.84979    0.29080    0.19070    1.000
    Si4841   Si       0.85793    0.33357    0.17987    1.000
    N4842    N        0.92745    0.29107    0.21176    1.000
    Si4843   Si       0.92094    0.33487    0.20873    1.000
    N4844    N        0.96081    0.34547    0.21162    1.000
    Si4845   Si       0.97393    0.38123    0.19039    1.000
    Si4846   Si       0.93687    0.27107    0.17286    1.000
    N4847    N        0.78949    0.50661    0.17799    1.000
    Si4848   Si       0.83180    0.49688    0.18314    1.000
    N4849    N        0.76820    0.43879    0.19819    1.000
    Si4850   Si       0.75783    0.48110    0.19300    1.000
    N4851    N        0.83599    0.45256    0.18682    1.000
    N4852    N        0.79478    0.38599    0.17646    1.000
    Si4853   Si       0.74351    0.41081    0.21817    1.000
    Si4854   Si       0.80170    0.42807    0.17216    1.000
    N4855    N        0.95758    0.42401    0.19681    1.000
    N4856    N        0.90663    0.47004    0.22360    1.000
    Si4857   Si       0.93418    0.49897    0.19949    1.000
    Si4858   Si       0.87846    0.44570    0.19837    1.000
    N4859    N        0.88899    0.40999    0.22179    1.000
    Si4860   Si       0.92684    0.42809    0.23050    1.000
    N4861    N        0.75813    0.33193    0.28044    1.000
    N4862    N        0.80904    0.28790    0.28217    1.000
    Si4863   Si       0.74404    0.37529    0.27121    1.000
    N4864    N        0.76824    0.37954    0.23704    1.000
    N4865    N        0.85184    0.38176    0.27864    1.000
    N4866    N        0.73995    0.26710    0.25682    1.000
    Si4867   Si       0.86848    0.37634    0.24018    1.000
    Si4868   Si       0.97721    0.31562    0.23900    1.000
    N4869    N        0.90329    0.34887    0.24659    1.000
    N4870    N        0.95102    0.30305    0.27421    1.000
    N4871    N        0.88614    0.28605    0.27558    1.000
    Si4872   Si       0.91030    0.32179    0.28232    1.000
    Si4873   Si       0.91955    0.26668    0.24758    1.000
    Si4874   Si       0.74902    0.46795    0.26508    1.000
    N4875    N        0.86104    0.46566    0.27785    1.000
    Si4876   Si       0.82328    0.48629    0.28673    1.000
    N4877    N        0.74856    0.49329    0.23248    1.000
    N4878    N        0.78465    0.46340    0.28867    1.000
    Si4879   Si       0.89483    0.49083    0.26130    1.000
    N4880    N        0.95819    0.41592    0.25786    1.000
    N4881    N        0.96176    0.50431    0.23168    1.000
    N4882    N        0.82729    0.33196    0.32527    1.000
    Si4883   Si       0.78878    0.32033    0.30686    1.000
    N4884    N        0.76398    0.33502    0.34494    1.000
    Si4885   Si       0.85772    0.36274    0.31721    1.000
    N4886    N        0.85722    0.26984    0.33494    1.000
    Si4887   Si       0.84861    0.27335    0.29232    1.000
    Si4888   Si       0.74041    0.37104    0.34378    1.000
    N4889    N        0.89843    0.34446    0.31702    1.000
    Si4890   Si       0.97032    0.28449    0.30801    1.000
    N4891    N        0.96600    0.37910    0.32268    1.000
    Si4892   Si       0.92427    0.37574    0.33420    1.000
    N4893    N        0.97273    0.31080    0.34445    1.000
    N4894    N        0.75685    0.39357    0.30913    1.000
    Si4895   Si       0.76928    0.43463    0.32049    1.000
    N4896    N        0.80243    0.42437    0.34533    1.000
    N4897    N        0.83305    0.51081    0.32132    1.000
    Si4898   Si       0.95509    0.41578    0.30088    1.000
    Si4899   Si       0.88875    0.44922    0.30962    1.000
    N4900    N        0.91508    0.41481    0.31614    1.000
    Si4901   Si       0.95791    0.48147    0.31543    1.000
    N4902    N        0.92014    0.47701    0.29314    1.000
    N4903    N        0.98386    0.44622    0.31140    1.000
    N4904    N        0.80464    0.29207    0.37966    1.000
    Si4905   Si       0.77390    0.32263    0.38447    1.000
    N4906    N        0.79605    0.35796    0.40183    1.000
    Si4907   Si       0.83963    0.30371    0.35553    1.000
    N4908    N        0.74177    0.29568    0.39493    1.000
    N4909    N        0.87258    0.31962    0.37928    1.000
    Si4910   Si       0.87883    0.36300    0.38367    1.000
    Si4911   Si       0.96299    0.27637    0.36859    1.000
    N4912    N        0.92860    0.27161    0.39460    1.000
    N4913    N        0.91992    0.38055    0.37848    1.000
    N4914    N        0.85571    0.38676    0.35403    1.000
    Si4915   Si       0.84190    0.42765    0.36232    1.000
    Si4916   Si       0.79288    0.39758    0.38124    1.000
    N4917    N        0.81509    0.49794    0.38810    1.000
    Si4918   Si       0.84755    0.49892    0.35833    1.000
    N4919    N        0.75223    0.39835    0.37684    1.000
    N4920    N        0.82169    0.42699    0.40329    1.000
    N4921    N        0.75766    0.46571    0.40418    1.000
    N4922    N        0.97511    0.42308    0.39389    1.000
    Si4923   Si       0.90516    0.47071    0.37333    1.000
    Si4924   Si       0.97724    0.46677    0.38362    1.000
    N4925    N        0.94460    0.47774    0.35696    1.000
    N4926    N        0.87049    0.45805    0.34849    1.000
    Si4927   Si       0.93537    0.41006    0.40597    1.000
    Si4928   Si       0.78621    0.35868    0.44548    1.000
    N4929    N        0.77254    0.31870    0.45085    1.000
    Si4930   Si       0.73988    0.28997    0.43879    1.000
    N4931    N        0.81719    0.38218    0.46558    1.000
    N4932    N        0.87346    0.27233    0.43599    1.000
    N4933    N        0.91359    0.32786    0.43249    1.000
    Si4934   Si       0.90061    0.36341    0.45257    1.000
    Si4935   Si       0.94485    0.30563    0.45018    1.000
    N4936    N        0.95653    0.26400    0.45193    1.000
    N4937    N        0.98345    0.32422    0.44488    1.000
    N4938    N        0.86892    0.37720    0.42285    1.000
    Si4939   Si       0.89561    0.29655    0.40770    1.000
    N4940    N        0.75310    0.38759    0.45274    1.000
    Si4941   Si       0.84008    0.40660    0.43814    1.000
    N4942    N        0.85725    0.44084    0.45691    1.000
    N4943    N        0.79817    0.47152    0.45730    1.000
    Si4944   Si       0.79965    0.46666    0.41354    1.000
    N4945    N        0.89555    0.50012    0.45135    1.000
    N4946    N        0.91234    0.44697    0.41022    1.000
    N4947    N        0.98096    0.49041    0.42189    1.000
    N4948    N        0.93334    0.39233    0.44840    1.000
    Si4949   Si       0.89758    0.45696    0.45008    1.000
    Si4950   Si       0.84011    0.35864    0.49213    1.000
    N4951    N        0.77638    0.30467    0.51387    1.000
    Si4952   Si       0.79890    0.29802    0.47799    1.000
    N4953    N        0.83850    0.32030    0.47235    1.000
    N4954    N        0.82366    0.26229    0.48537    1.000
    Si4955   Si       0.86126    0.28471    0.47499    1.000
    Si4956   Si       0.74942    0.27179    0.52437    1.000
    Si4957   Si       0.98470    0.33164    0.48832    1.000
    N4958    N        0.88129    0.37380    0.49068    1.000
    N4959    N        0.94131    0.32017    0.49203    1.000
    N4960    N        0.88924    0.27559    0.50567    1.000
    Si4961   Si       0.91890    0.30376    0.52370    1.000
    Si4962   Si       0.76340    0.47305    0.48620    1.000
    N4963    N        0.80026    0.43167    0.50736    1.000
    Si4964   Si       0.82890    0.45595    0.48560    1.000
    N4965    N        0.85133    0.47352    0.51664    1.000
    Si4966   Si       0.76925    0.40443    0.49202    1.000
    N4967    N        0.78710    0.49340    0.51842    1.000
    N4968    N        0.73830    0.43756    0.49392    1.000
    N4969    N        0.91636    0.45002    0.48851    1.000
    N4970    N        0.98148    0.43919    0.47551    1.000
    N4971    N        0.93977    0.39631    0.52138    1.000
    Si4972   Si       0.94329    0.41783    0.48330    1.000
    Si4973   Si       0.89504    0.46921    0.52062    1.000
    Si4974   Si       0.98654    0.48142    0.46537    1.000
    Si4975   Si       0.83717    0.37376    0.56701    1.000
    Si4976   Si       0.78093    0.34084    0.53606    1.000
    N4977    N        0.82213    0.35492    0.53100    1.000
    N4978    N        0.77732    0.32289    0.57917    1.000
    N4979    N        0.82828    0.26720    0.58024    1.000
    N4980    N        0.75794    0.37671    0.52497    1.000
    N4981    N        0.97918    0.34857    0.56066    1.000
    N4982    N        0.90069    0.33729    0.54290    1.000
    N4983    N        0.94795    0.28469    0.54944    1.000
    Si4984   Si       0.98632    0.30485    0.55207    1.000
    Si4985   Si       0.90069    0.37979    0.52953    1.000
    N4986    N        0.75317    0.43297    0.57365    1.000
    N4987    N        0.82785    0.44701    0.57516    1.000
    Si4988   Si       0.81960    0.47594    0.54513    1.000
    N4989    N        0.89926    0.45514    0.56152    1.000
    Si4990   Si       0.86798    0.43357    0.58015    1.000
    Si4991   Si       0.98141    0.38562    0.53432    1.000
    N4992    N        0.87061    0.39547    0.55589    1.000
    Si4993   Si       0.77257    0.35753    0.60621    1.000
    N4994    N        0.85305    0.34600    0.59598    1.000
    N4995    N        0.76635    0.26462    0.61935    1.000
    Si4996   Si       0.83680    0.35105    0.63546    1.000
    Si4997   Si       0.74303    0.29236    0.64485    1.000
    Si4998   Si       0.78776    0.28111    0.58262    1.000
    Si4999   Si       0.93881    0.28535    0.62975    1.000
    N5000    N        0.92131    0.36675    0.60130    1.000
    Si5001   Si       0.96249    0.34849    0.60016    1.000
    N5002    N        0.97116    0.31081    0.61904    1.000
    N5003    N        0.90296    0.30100    0.60964    1.000
    Si5004   Si       0.89397    0.33672    0.58567    1.000
    N5005    N        0.98504    0.37670    0.62723    1.000
    N5006    N        0.80170    0.38792    0.58766    1.000
    N5007    N        0.78020    0.45834    0.62299    1.000
    Si5008   Si       0.79407    0.43067    0.59391    1.000
    Si5009   Si       0.74169    0.45877    0.60626    1.000
    N5010    N        0.94159    0.44347    0.61867    1.000
    Si5011   Si       0.91412    0.47196    0.59848    1.000
    N5012    N        0.87964    0.42360    0.62055    1.000
    Si5013   Si       0.98019    0.46035    0.63007    1.000
    N5014    N        0.87573    0.49192    0.61157    1.000
    Si5015   Si       0.91926    0.40525    0.62449    1.000
    Si5016   Si       0.77973    0.33891    0.68135    1.000
    N5017    N        0.77070    0.29671    0.67784    1.000
    Si5018   Si       0.85188    0.35471    0.69284    1.000
    N5019    N        0.85659    0.32334    0.66167    1.000
    N5020    N        0.79466    0.34757    0.64051    1.000
    N5021    N        0.91921    0.29106    0.66816    1.000
    Si5022   Si       0.88001    0.29097    0.64415    1.000
    N5023    N        0.97744    0.26547    0.70086    1.000
    N5024    N        0.84652    0.38455    0.66136    1.000
    Si5025   Si       0.78992    0.46464    0.66510    1.000
    N5026    N        0.83503    0.46100    0.66036    1.000
    N5027    N        0.76314    0.43867    0.68747    1.000
    Si5028   Si       0.85676    0.49850    0.65114    1.000
    Si5029   Si       0.85750    0.42545    0.65879    1.000
    N5030    N        0.79056    0.50560    0.68324    1.000
    N5031    N        0.88903    0.50575    0.67941    1.000
    N5032    N        0.88599    0.43385    0.68960    1.000
    N5033    N        0.92987    0.39164    0.66448    1.000
    N5034    N        0.97626    0.50059    0.64536    1.000
    Si5035   Si       0.97424    0.39689    0.66363    1.000
    Si5036   Si       0.90966    0.39990    0.70279    1.000
    Si5037   Si       0.80818    0.36896    0.74652    1.000
    N5038    N        0.79896    0.27186    0.74071    1.000
    N5039    N        0.81364    0.34878    0.70858    1.000
    Si5040   Si       0.76418    0.27220    0.71190    1.000
    Si5041   Si       0.73891    0.36977    0.74376    1.000
    N5042    N        0.74844    0.35782    0.70467    1.000
    N5043    N        0.86420    0.27847    0.75413    1.000
    N5044    N        0.88327    0.36780    0.71897    1.000
    N5045    N        0.92986    0.28658    0.74656    1.000
    N5046    N        0.98447    0.32805    0.74530    1.000
    Si5047   Si       0.93480    0.27346    0.70535    1.000
    N5048    N        0.77755    0.47415    0.74494    1.000
    Si5049   Si       0.77457    0.43382    0.72890    1.000
    N5050    N        0.81126    0.41194    0.74367    1.000
    N5051    N        0.86385    0.46844    0.74182    1.000
    N5052    N        0.73901    0.41387    0.74505    1.000
    Si5053   Si       0.78914    0.51162    0.72648    1.000
    Si5054   Si       0.98096    0.39302    0.73626    1.000
    Si5055   Si       0.89171    0.47152    0.70891    1.000
    N5056    N        0.93973    0.40682    0.73270    1.000
    N5057    N        0.93038    0.47422    0.72521    1.000
    Si5058   Si       0.95122    0.44564    0.74801    1.000
    N5059    N        0.83752    0.34654    0.76888    1.000
    N5060    N        0.82516    0.29937    0.80747    1.000
    N5061    N        0.77313    0.36004    0.76935    1.000
    Si5062   Si       0.75638    0.34279    0.80964    1.000
    Si5063   Si       0.82690    0.29918    0.76419    1.000
    N5064    N        0.74409    0.30414    0.79968    1.000
    Si5065   Si       0.82926    0.34205    0.81264    1.000
    N5066    N        0.96905    0.30069    0.80118    1.000
    N5067    N        0.90959    0.34213    0.78106    1.000
    Si5068   Si       0.90325    0.26887    0.77474    1.000
    Si5069   Si       0.94693    0.31992    0.76806    1.000
    Si5070   Si       0.87703    0.36459    0.76298    1.000
    N5071    N        0.90705    0.26835    0.81714    1.000
    N5072    N        0.74843    0.45177    0.80306    1.000
    Si5073   Si       0.78341    0.47401    0.78842    1.000
    N5074    N        0.82174    0.45299    0.79511    1.000
    Si5075   Si       0.84335    0.43431    0.76216    1.000
    Si5076   Si       0.86514    0.50810    0.76164    1.000
    Si5077   Si       0.90654    0.42326    0.80619    1.000
    N5078    N        0.97190    0.50330    0.76935    1.000
    N5079    N        0.87464    0.40681    0.77934    1.000
    N5080    N        0.93916    0.44967    0.78922    1.000
    Si5081   Si       0.97021    0.47721    0.80353    1.000
    N5082    N        0.86808    0.50729    0.80440    1.000
    Si5083   Si       0.82236    0.28176    0.84573    1.000
    N5084    N        0.79236    0.35415    0.83389    1.000
    N5085    N        0.78004    0.27542    0.85211    1.000
    Si5086   Si       0.79035    0.37974    0.87111    1.000
    N5087    N        0.86365    0.35045    0.83702    1.000
    Si5088   Si       0.74947    0.26664    0.82188    1.000
    N5089    N        0.92553    0.32578    0.85412    1.000
    Si5090   Si       0.94197    0.29012    0.83363    1.000
    Si5091   Si       0.90689    0.35204    0.82286    1.000
    N5092    N        0.96316    0.26490    0.86168    1.000
    N5093    N        0.82702    0.48645    0.85819    1.000
    Si5094   Si       0.75367    0.44567    0.84581    1.000
    N5095    N        0.75618    0.48602    0.86204    1.000
    N5096    N        0.78436    0.41997    0.85638    1.000
    Si5097   Si       0.84859    0.47324    0.82338    1.000
    N5098    N        0.92494    0.39148    0.83035    1.000
    Si5099   Si       0.95206    0.39998    0.86246    1.000
    Si5100   Si       0.89488    0.44898    0.87577    1.000
    N5101    N        0.97243    0.50324    0.83766    1.000
    N5102    N        0.88298    0.44678    0.83439    1.000
    Si5103   Si       0.82073    0.29670    0.92001    1.000
    N5104    N        0.82674    0.37379    0.89405    1.000
    N5105    N        0.77751    0.30764    0.91890    1.000
    Si5106   Si       0.74566    0.33792    0.91522    1.000
    N5107    N        0.76063    0.37843    0.90835    1.000
    Si5108   Si       0.74907    0.28094    0.88523    1.000
    Si5109   Si       0.85550    0.34483    0.87989    1.000
    N5110    N        0.83367    0.30616    0.87934    1.000
    Si5111   Si       0.96901    0.27461    0.90377    1.000
    N5112    N        0.94434    0.30684    0.92036    1.000
    N5113    N        0.88775    0.34775    0.90985    1.000
    Si5114   Si       0.92732    0.33632    0.89678    1.000
    N5115    N        0.95065    0.37403    0.89850    1.000
    Si5116   Si       0.84689    0.47661    0.89643    1.000
    Si5117   Si       0.83713    0.40421    0.92295    1.000
    N5118    N        0.86170    0.43600    0.90261    1.000
    N5119    N        0.73916    0.44675    0.93395    1.000
    N5120    N        0.80274    0.42602    0.93869    1.000
    N5121    N        0.83339    0.49303    0.93382    1.000
    N5122    N        0.88905    0.49030    0.88687    1.000
    Si5123   Si       0.95999    0.45610    0.91359    1.000
    N5124    N        0.94300    0.49530    0.92507    1.000
    Si5125   Si       0.97689    0.38712    0.93019    1.000
    N5126    N        0.93636    0.43724    0.88147    1.000
    N5127    N        0.83893    0.31988    0.95247    1.000
    Si5128   Si       0.81092    0.30376    0.98381    1.000
    Si5129   Si       0.75236    0.28314    0.95080    1.000
    N5130    N        0.79289    0.26757    0.96763    1.000
    N5131    N        0.96189    0.30046    0.99100    1.000
    Si5132   Si       0.87273    0.34783    0.95263    1.000
    Si5133   Si       0.97311    0.31571    0.95280    1.000
    N5134    N        0.89613    0.33445    0.98649    1.000
    N5135    N        0.98113    0.35699    0.96343    1.000
    N5136    N        0.85760    0.38963    0.95861    1.000
    N5137    N        0.75434    0.39355    0.98049    1.000
    Si5138   Si       0.81319    0.46347    0.95954    1.000
    N5139    N        0.78043    0.49019    0.97482    1.000
    Si5140   Si       0.74243    0.48553    0.95423    1.000
    Si5141   Si       0.76341    0.40851    0.93917    1.000
    Si5142   Si       0.84577    0.40827    0.99556    1.000
    N5143    N        0.83770    0.45271    0.99343    1.000
    N5144    N        0.90632    0.43275    0.98743    1.000
    Si5145   Si       0.94930    0.43601    0.98467    1.000
    Si5146   Si       0.93279    0.50758    0.96605    1.000
    N5147    N        0.96289    0.42803    0.94408    1.000
    N5148    N        0.89058    0.50124    0.97490    1.000
    N5149    N        0.95474    0.47890    0.99275    1.000
    N5150    N        0.75786    0.61168    0.03369    1.000
    Si5151   Si       0.80146    0.60997    0.03410    1.000
    N5152    N        0.81777    0.51472    0.02784    1.000
    N5153    N        0.82426    0.60990    0.99849    1.000
    Si5154   Si       0.83810    0.54731    0.04765    1.000
    N5155    N        0.76486    0.55412    0.99663    1.000
    N5156    N        0.86906    0.56069    0.02257    1.000
    Si5157   Si       0.91374    0.55526    0.02055    1.000
    N5158    N        0.92658    0.59763    0.02246    1.000
    Si5159   Si       0.96272    0.60955    0.04075    1.000
    N5160    N        0.92428    0.52022    0.04472    1.000
    Si5161   Si       0.77634    0.69959    0.01289    1.000
    N5162    N        0.81339    0.71231    0.02959    1.000
    N5163    N        0.85868    0.66768    0.01408    1.000
    N5164    N        0.74719    0.68370    0.04009    1.000
    Si5165   Si       0.83330    0.67901    0.04924    1.000
    N5166    N        0.80301    0.64887    0.05533    1.000
    N5167    N        0.96803    0.71886    0.00729    1.000
    N5168    N        0.96997    0.65346    0.04254    1.000
    Si5169   Si       0.94085    0.73479    0.03762    1.000
    Si5170   Si       0.89636    0.68691    0.00497    1.000
    N5171    N        0.90719    0.70627    0.04081    1.000
    Si5172   Si       0.79105    0.58009    0.10199    1.000
    N5173    N        0.74740    0.58058    0.09839    1.000
    N5174    N        0.81091    0.57718    0.06304    1.000
    N5175    N        0.85784    0.52939    0.08374    1.000
    N5176    N        0.96586    0.60869    0.08525    1.000
    Si5177   Si       0.75942    0.65132    0.06436    1.000
    N5178    N        0.85789    0.68477    0.08468    1.000
    N5179    N        0.75715    0.66240    0.10755    1.000
    Si5180   Si       0.90068    0.69835    0.08226    1.000
    N5181    N        0.95683    0.73193    0.07930    1.000
    N5182    N        0.92472    0.66500    0.10143    1.000
    Si5183   Si       0.96439    0.65341    0.08715    1.000
    N5184    N        0.89827    0.73628    0.10446    1.000
    Si5185   Si       0.84159    0.60892    0.14691    1.000
    Si5186   Si       0.84248    0.53584    0.12506    1.000
    N5187    N        0.80176    0.54977    0.13041    1.000
    N5188    N        0.80175    0.61344    0.12609    1.000
    Si5189   Si       0.77788    0.54800    0.16936    1.000
    N5190    N        0.73644    0.56123    0.16342    1.000
    N5191    N        0.86268    0.56998    0.14069    1.000
    N5192    N        0.92681    0.59890    0.14220    1.000
    Si5193   Si       0.96512    0.58857    0.12359    1.000
    N5194    N        0.96704    0.54640    0.13033    1.000
    Si5195   Si       0.90102    0.56917    0.16309    1.000
    Si5196   Si       0.98939    0.51562    0.14958    1.000
    Si5197   Si       0.85354    0.67564    0.12638    1.000
    N5198    N        0.81465    0.67923    0.14511    1.000
    Si5199   Si       0.78147    0.64991    0.14078    1.000
    N5200    N        0.96987    0.72370    0.13997    1.000
    Si5201   Si       0.93821    0.74691    0.11886    1.000
    N5202    N        0.91345    0.75075    0.16522    1.000
    Si5203   Si       0.91226    0.64060    0.13598    1.000
    N5204    N        0.87455    0.70101    0.15391    1.000
    Si5205   Si       0.87482    0.74767    0.14506    1.000
    N5206    N        0.86976    0.63692    0.13232    1.000
    Si5207   Si       0.79138    0.61646    0.20625    1.000
    N5208    N        0.78900    0.57026    0.20582    1.000
    N5209    N        0.84476    0.52842    0.20935    1.000
    N5210    N        0.83021    0.62179    0.18642    1.000
    Si5211   Si       0.85793    0.61286    0.21697    1.000
    N5212    N        0.88787    0.58775    0.19994    1.000
    N5213    N        0.91100    0.53159    0.18520    1.000
    Si5214   Si       0.88355    0.54700    0.21731    1.000
    N5215    N        0.82293    0.69097    0.21995    1.000
    Si5216   Si       0.83136    0.70306    0.17874    1.000
    N5217    N        0.76669    0.64483    0.18201    1.000
    Si5218   Si       0.73902    0.67380    0.19732    1.000
    N5219    N        0.75156    0.69581    0.23259    1.000
    N5220    N        0.83661    0.74428    0.17086    1.000
    N5221    N        0.94838    0.71154    0.20599    1.000
    Si5222   Si       0.95637    0.66507    0.20318    1.000
    Si5223   Si       0.90933    0.70454    0.17959    1.000
    N5224    N        0.88810    0.70867    0.21802    1.000
    Si5225   Si       0.97294    0.73614    0.18029    1.000
    N5226    N        0.92719    0.66318    0.17032    1.000
    N5227    N        0.83928    0.58676    0.24570    1.000
    N5228    N        0.80895    0.52490    0.26691    1.000
    Si5229   Si       0.75854    0.61582    0.27316    1.000
    Si5230   Si       0.85311    0.60155    0.28334    1.000
    Si5231   Si       0.81638    0.55060    0.23272    1.000
    N5232    N        0.75991    0.57661    0.28858    1.000
    N5233    N        0.89422    0.53346    0.25590    1.000
    N5234    N        0.95301    0.57103    0.26085    1.000
    Si5235   Si       0.97280    0.53232    0.26164    1.000
    Si5236   Si       0.97739    0.60534    0.24673    1.000
    N5237    N        0.89778    0.60151    0.27686    1.000
    Si5238   Si       0.91551    0.56285    0.28222    1.000
    N5239    N        0.78420    0.63740    0.24450    1.000
    Si5240   Si       0.78951    0.68282    0.24659    1.000
    N5241    N        0.85639    0.70194    0.28401    1.000
    N5242    N        0.79058    0.69344    0.28807    1.000
    Si5243   Si       0.86056    0.68649    0.24276    1.000
    Si5244   Si       0.91174    0.63668    0.25785    1.000
    N5245    N        0.98265    0.70097    0.28463    1.000
    N5246    N        0.91578    0.66713    0.28953    1.000
    Si5247   Si       0.92006    0.73139    0.23368    1.000
    N5248    N        0.94776    0.63617    0.23564    1.000
    N5249    N        0.92271    0.73384    0.27670    1.000
    N5250    N        0.87395    0.64674    0.23766    1.000
    N5251    N        0.82693    0.58033    0.31122    1.000
    Si5252   Si       0.80504    0.54413    0.30786    1.000
    N5253    N        0.77431    0.53793    0.33971    1.000
    Si5254   Si       0.83091    0.61351    0.33991    1.000
    Si5255   Si       0.73986    0.55808    0.32439    1.000
    N5256    N        0.97454    0.51845    0.30305    1.000
    N5257    N        0.92253    0.55190    0.32223    1.000
    Si5258   Si       0.96511    0.54900    0.33331    1.000
    N5259    N        0.74922    0.63966    0.30898    1.000
    N5260    N        0.84778    0.63742    0.30559    1.000
    Si5261   Si       0.75519    0.68353    0.31170    1.000
    Si5262   Si       0.82255    0.71880    0.30352    1.000
    N5263    N        0.83018    0.71204    0.34820    1.000
    Si5264   Si       0.87628    0.67160    0.30871    1.000
    N5265    N        0.94170    0.70980    0.34172    1.000
    Si5266   Si       0.94118    0.70081    0.30030    1.000
    N5267    N        0.98530    0.65882    0.33628    1.000
    Si5268   Si       0.78847    0.53323    0.37997    1.000
    N5269    N        0.80940    0.57319    0.38830    1.000
    Si5270   Si       0.79867    0.61234    0.40197    1.000
    Si5271   Si       0.84853    0.58311    0.40508    1.000
    N5272    N        0.75449    0.53673    0.40656    1.000
    N5273    N        0.86392    0.60405    0.36659    1.000
    N5274    N        0.93296    0.61727    0.36165    1.000
    Si5275   Si       0.97477    0.61983    0.35186    1.000
    N5276    N        0.98604    0.53051    0.36713    1.000
    Si5277   Si       0.89584    0.63232    0.37362    1.000
    N5278    N        0.88439    0.50928    0.37946    1.000
    N5279    N        0.80546    0.63924    0.36758    1.000
    Si5280   Si       0.80356    0.68296    0.36853    1.000
    Si5281   Si       0.84669    0.72377    0.38889    1.000
    N5282    N        0.76363    0.69600    0.35227    1.000
    N5283    N        0.81774    0.69600    0.40705    1.000
    N5284    N        0.88892    0.66976    0.34998    1.000
    Si5285   Si       0.97782    0.69185    0.36126    1.000
    N5286    N        0.95109    0.67921    0.39585    1.000
    Si5287   Si       0.91509    0.69451    0.37280    1.000
    N5288    N        0.89031    0.72101    0.39655    1.000
    N5289    N        0.83364    0.61825    0.42703    1.000
    N5290    N        0.75890    0.61081    0.41585    1.000
    N5291    N        0.87930    0.56633    0.42681    1.000
    Si5292   Si       0.91845    0.57885    0.44289    1.000
    N5293    N        0.94682    0.61004    0.43283    1.000
    Si5294   Si       0.89653    0.52777    0.41602    1.000
    N5295    N        0.93601    0.54259    0.41843    1.000
    Si5296   Si       0.97688    0.53082    0.40853    1.000
    Si5297   Si       0.81122    0.68535    0.45049    1.000
    Si5298   Si       0.75103    0.72093    0.43765    1.000
    Si5299   Si       0.74696    0.64712    0.43774    1.000
    N5300    N        0.78312    0.65446    0.46117    1.000
    N5301    N        0.85300    0.68119    0.46036    1.000
    N5302    N        0.74338    0.68511    0.41590    1.000
    N5303    N        0.76237    0.75320    0.40884    1.000
    Si5304   Si       0.97632    0.70521    0.42237    1.000
    Si5305   Si       0.93479    0.65094    0.42721    1.000
    Si5306   Si       0.90998    0.74569    0.42438    1.000
    Si5307   Si       0.86466    0.64075    0.44750    1.000
    N5308    N        0.89307    0.64874    0.41303    1.000
    N5309    N        0.95455    0.74325    0.42427    1.000
    N5310    N        0.95276    0.67593    0.45827    1.000
    N5311    N        0.90278    0.73591    0.46777    1.000
    N5312    N        0.82760    0.55770    0.50844    1.000
    N5313    N        0.77740    0.60476    0.51002    1.000
    Si5314   Si       0.81789    0.59767    0.52239    1.000
    Si5315   Si       0.91461    0.60057    0.50386    1.000
    N5316    N        0.92618    0.56426    0.48243    1.000
    Si5317   Si       0.96497    0.55143    0.50231    1.000
    Si5318   Si       0.91995    0.51973    0.48191    1.000
    N5319    N        0.89213    0.62131    0.47352    1.000
    N5320    N        0.95385    0.61186    0.52134    1.000
    N5321    N        0.96309    0.51215    0.48629    1.000
    N5322    N        0.90457    0.51263    0.52169    1.000
    N5323    N        0.77233    0.74852    0.51795    1.000
    N5324    N        0.84461    0.74185    0.50516    1.000
    Si5325   Si       0.80546    0.75030    0.48967    1.000
    Si5326   Si       0.75471    0.71282    0.49966    1.000
    Si5327   Si       0.78128    0.64769    0.50663    1.000
    N5328    N        0.75109    0.67391    0.51890    1.000
    N5329    N        0.82473    0.64271    0.51777    1.000
    N5330    N        0.78744    0.71758    0.46597    1.000
    Si5331   Si       0.87024    0.71039    0.48577    1.000
    N5332    N        0.88618    0.68745    0.51937    1.000
    Si5333   Si       0.92652    0.75674    0.49546    1.000
    N5334    N        0.76472    0.55467    0.54870    1.000
    N5335    N        0.83195    0.59775    0.56472    1.000
    Si5336   Si       0.79936    0.53412    0.53318    1.000
    N5337    N        0.82228    0.51501    0.56578    1.000
    Si5338   Si       0.74307    0.58375    0.52497    1.000
    Si5339   Si       0.97438    0.57803    0.57198    1.000
    Si5340   Si       0.91969    0.53072    0.55733    1.000
    N5341    N        0.95577    0.55059    0.54360    1.000
    N5342    N        0.89316    0.61775    0.54198    1.000
    N5343    N        0.88242    0.55150    0.57587    1.000
    Si5344   Si       0.87415    0.59314    0.57575    1.000
    Si5345   Si       0.93582    0.63134    0.55554    1.000
    Si5346   Si       0.81803    0.63805    0.57971    1.000
    N5347    N        0.85334    0.66504    0.57538    1.000
    N5348    N        0.77985    0.65687    0.57476    1.000
    Si5349   Si       0.86405    0.65300    0.53247    1.000
    N5350    N        0.76335    0.73506    0.58483    1.000
    Si5351   Si       0.75553    0.69160    0.58365    1.000
    N5352    N        0.93261    0.73840    0.53498    1.000
    N5353    N        0.94164    0.67323    0.56065    1.000
    Si5354   Si       0.95468    0.75658    0.56741    1.000
    Si5355   Si       0.91139    0.70439    0.55173    1.000
    Si5356   Si       0.97713    0.68910    0.58190    1.000
    N5357    N        0.89227    0.72010    0.58616    1.000
    N5358    N        0.76628    0.54447    0.62540    1.000
    N5359    N        0.74967    0.61102    0.61621    1.000
    Si5360   Si       0.85130    0.52648    0.59572    1.000
    N5361    N        0.83266    0.53171    0.63513    1.000
    Si5362   Si       0.75143    0.53929    0.58513    1.000
    N5363    N        0.81678    0.63515    0.62319    1.000
    N5364    N        0.93740    0.50728    0.59153    1.000
    N5365    N        0.88511    0.60981    0.61660    1.000
    Si5366   Si       0.95644    0.52919    0.62134    1.000
    Si5367   Si       0.92656    0.59782    0.62587    1.000
    N5368    N        0.94535    0.60430    0.58752    1.000
    N5369    N        0.98537    0.55734    0.60704    1.000
    N5370    N        0.75504    0.68449    0.62858    1.000
    N5371    N        0.82932    0.72634    0.61303    1.000
    Si5372   Si       0.79405    0.75212    0.61251    1.000
    Si5373   Si       0.77506    0.64509    0.62626    1.000
    Si5374   Si       0.85748    0.69858    0.60479    1.000
    Si5375   Si       0.94280    0.73229    0.63712    1.000
    N5376    N        0.96488    0.72668    0.59982    1.000
    N5377    N        0.78793    0.57766    0.67156    1.000
    Si5378   Si       0.80687    0.61450    0.68850    1.000
    N5379    N        0.84835    0.62002    0.67979    1.000
    Si5380   Si       0.79669    0.53934    0.65506    1.000
    Si5381   Si       0.75210    0.58111    0.64634    1.000
    N5382    N        0.94838    0.62319    0.65497    1.000
    Si5383   Si       0.91391    0.54225    0.68135    1.000
    Si5384   Si       0.94180    0.61289    0.69773    1.000
    Si5385   Si       0.98785    0.52070    0.68245    1.000
    N5386    N        0.92821    0.55737    0.64316    1.000
    N5387    N        0.77560    0.64247    0.67311    1.000
    N5388    N        0.77724    0.74615    0.65245    1.000
    N5389    N        0.84563    0.74350    0.68903    1.000
    Si5390   Si       0.74229    0.72299    0.64442    1.000
    Si5391   Si       0.73893    0.66428    0.68349    1.000
    N5392    N        0.73447    0.70755    0.68533    1.000
    Si5393   Si       0.85685    0.63512    0.63991    1.000
    N5394    N        0.89974    0.74116    0.64826    1.000
    Si5395   Si       0.89860    0.70048    0.66714    1.000
    N5396    N        0.94200    0.69022    0.65290    1.000
    Si5397   Si       0.97245    0.66020    0.64771    1.000
    N5398    N        0.96100    0.75347    0.67212    1.000
    N5399    N        0.87132    0.67608    0.64201    1.000
    N5400    N        0.79709    0.61270    0.72977    1.000
    Si5401   Si       0.75466    0.61557    0.74081    1.000
    N5402    N        0.76605    0.54092    0.74850    1.000
    N5403    N        0.82590    0.52228    0.74980    1.000
    N5404    N        0.86580    0.60192    0.74795    1.000
    Si5405   Si       0.94062    0.51560    0.74061    1.000
    N5406    N        0.89945    0.53118    0.74916    1.000
    N5407    N        0.98091    0.61676    0.71744    1.000
    Si5408   Si       0.87926    0.61358    0.70781    1.000
    Si5409   Si       0.98561    0.59018    0.75249    1.000
    N5410    N        0.95084    0.53279    0.70141    1.000
    N5411    N        0.91089    0.58262    0.70322    1.000
    Si5412   Si       0.90170    0.57317    0.75492    1.000
    Si5413   Si       0.79974    0.72982    0.75924    1.000
    N5414    N        0.83956    0.71233    0.75205    1.000
    N5415    N        0.77288    0.69408    0.76472    1.000
    Si5416   Si       0.86546    0.73317    0.72611    1.000
    N5417    N        0.95062    0.68715    0.75624    1.000
    Si5418   Si       0.91271    0.67757    0.73737    1.000
    N5419    N        0.89650    0.70568    0.71004    1.000
    N5420    N        0.91164    0.64399    0.71184    1.000
    N5421    N        0.88968    0.75753    0.75257    1.000
    N5422    N        0.82135    0.57684    0.79056    1.000
    Si5423   Si       0.79915    0.54276    0.77831    1.000
    N5424    N        0.76507    0.61788    0.78262    1.000
    N5425    N        0.79077    0.51227    0.80819    1.000
    Si5426   Si       0.85617    0.58754    0.81365    1.000
    Si5427   Si       0.82486    0.61139    0.76209    1.000
    Si5428   Si       0.93739    0.58421    0.80769    1.000
    N5429    N        0.89537    0.56939    0.80330    1.000
    N5430    N        0.94519    0.57887    0.76522    1.000
    N5431    N        0.93790    0.62739    0.81570    1.000
    N5432    N        0.79953    0.74355    0.80001    1.000
    N5433    N        0.82196    0.64907    0.78486    1.000
    Si5434   Si       0.77754    0.66067    0.79215    1.000
    Si5435   Si       0.84977    0.68275    0.78037    1.000
    Si5436   Si       0.90194    0.65214    0.81431    1.000
    N5437    N        0.89146    0.67236    0.77485    1.000
    Si5438   Si       0.95761    0.70981    0.79076    1.000
    N5439    N        0.92634    0.73034    0.81097    1.000
    N5440    N        0.80370    0.61605    0.85268    1.000
    N5441    N        0.84927    0.56157    0.84985    1.000
    Si5442   Si       0.81757    0.58074    0.87588    1.000
    N5443    N        0.78688    0.54771    0.87719    1.000
    Si5444   Si       0.79120    0.51036    0.85275    1.000
    N5445    N        0.86572    0.62830    0.82488    1.000
    N5446    N        0.97404    0.57231    0.83064    1.000
    Si5447   Si       0.88337    0.53736    0.83120    1.000
    N5448    N        0.91744    0.53709    0.85664    1.000
    Si5449   Si       0.96217    0.54265    0.85862    1.000
    N5450    N        0.81062    0.73048    0.86790    1.000
    N5451    N        0.78843    0.67428    0.83314    1.000
    Si5452   Si       0.83050    0.65086    0.83450    1.000
    Si5453   Si       0.78609    0.71969    0.83507    1.000
    Si5454   Si       0.84688    0.70799    0.86206    1.000
    Si5455   Si       0.77660    0.64594    0.86833    1.000
    N5456    N        0.84799    0.69392    0.82167    1.000
    N5457    N        0.83979    0.66824    0.87817    1.000
    N5458    N        0.74106    0.71803    0.83783    1.000
    N5459    N        0.97626    0.68333    0.82434    1.000
    Si5460   Si       0.96925    0.64437    0.84038    1.000
    Si5461   Si       0.92039    0.71977    0.85354    1.000
    N5462    N        0.88003    0.73505    0.87058    1.000
    N5463    N        0.91060    0.67690    0.84867    1.000
    N5464    N        0.83871    0.59907    0.90989    1.000
    Si5465   Si       0.74566    0.54682    0.89157    1.000
    N5466    N        0.88649    0.54544    0.92481    1.000
    N5467    N        0.90499    0.61440    0.89769    1.000
    Si5468   Si       0.95016    0.60760    0.90618    1.000
    Si5469   Si       0.87866    0.58783    0.92190    1.000
    N5470    N        0.95037    0.55975    0.90206    1.000
    Si5471   Si       0.91580    0.52457    0.89948    1.000
    Si5472   Si       0.82887    0.64218    0.91223    1.000
    N5473    N        0.78553    0.64676    0.91242    1.000
    Si5474   Si       0.80866    0.74825    0.90723    1.000
    N5475    N        0.77179    0.74479    0.92887    1.000
    N5476    N        0.84018    0.73143    0.93571    1.000
    Si5477   Si       0.97377    0.68563    0.89526    1.000
    N5478    N        0.92816    0.75398    0.93295    1.000
    Si5479   Si       0.91117    0.65543    0.88598    1.000
    N5480    N        0.95203    0.71959    0.88348    1.000
    N5481    N        0.95504    0.64865    0.88322    1.000
    Si5482   Si       0.92790    0.71038    0.93580    1.000
    N5483    N        0.90028    0.68301    0.91654    1.000
    N5484    N        0.83171    0.54579    0.97058    1.000
    N5485    N        0.74843    0.62257    0.96621    1.000
    Si5486   Si       0.85207    0.58026    0.98876    1.000
    Si5487   Si       0.79834    0.52663    0.99073    1.000
    Si5488   Si       0.86098    0.52196    0.94961    1.000
    N5489    N        0.88274    0.59658    0.96472    1.000
    N5490    N        0.94829    0.61421    0.95089    1.000
    Si5491   Si       0.91757    0.61310    0.98256    1.000
    N5492    N        0.93919    0.54668    0.98323    1.000
    Si5493   Si       0.98139    0.55636    0.99084    1.000
    N5494    N        0.84709    0.65901    0.94712    1.000
    Si5495   Si       0.76757    0.65739    0.94909    1.000
    N5496    N        0.79324    0.67187    0.98249    1.000
    Si5497   Si       0.83001    0.65079    0.98586    1.000
    Si5498   Si       0.73957    0.73065    0.95183    1.000
    N5499    N        0.74917    0.72867    0.99462    1.000
    Si5500   Si       0.86729    0.69808    0.94011    1.000
    Si5501   Si       0.90744    0.75771    0.96951    1.000
    N5502    N        0.89405    0.71540    0.96928    1.000
    N5503    N        0.91996    0.65641    0.98759    1.000
    N5504    N        0.96236    0.68508    0.94038    1.000
    Si5505   Si       0.96127    0.65156    0.96616    1.000
    N5506    N        0.78891    0.83219    0.02400    1.000
    N5507    N        0.77860    0.76973    0.04473    1.000
    Si5508   Si       0.78979    0.87528    0.02800    1.000
    N5509    N        0.85351    0.76468    0.04534    1.000
    Si5510   Si       0.74319    0.76288    0.02024    1.000
    N5511    N        0.83256    0.87881    0.03543    1.000
    Si5512   Si       0.81521    0.75677    0.02526    1.000
    Si5513   Si       0.85554    0.84763    0.05608    1.000
    N5514    N        0.87006    0.82621    0.01941    1.000
    N5515    N        0.96642    0.80697    0.03881    1.000
    Si5516   Si       0.88849    0.78806    0.02980    1.000
    N5517    N        0.92119    0.76673    0.00993    1.000
    Si5518   Si       0.94943    0.80346    0.99887    1.000
    N5519    N        0.78753    0.95226    0.03365    1.000
    Si5520   Si       0.81195    0.98822    0.03846    1.000
    N5521    N        0.84898    0.98675    0.01532    1.000
    Si5522   Si       0.85792    0.90468    0.01171    1.000
    Si5523   Si       0.76650    0.94006    0.99894    1.000
    Si5524   Si       0.97096    0.92051    0.00693    1.000
    N5525    N        0.92647    0.97308    0.03426    1.000
    N5526    N        0.94237    0.89036    0.02178    1.000
    N5527    N        0.87668    0.93096    0.04334    1.000
    Si5528   Si       0.88725    0.96709    0.02201    1.000
    N5529    N        0.98365    0.93527    0.04548    1.000
    Si5530   Si       0.95442    0.99197    0.00684    1.000
    N5531    N        0.82735    0.82485    0.08155    1.000
    N5532    N        0.75674    0.82228    0.08936    1.000
    Si5533   Si       0.76350    0.86413    0.09867    1.000
    Si5534   Si       0.78906    0.80931    0.06172    1.000
    Si5535   Si       0.87436    0.76950    0.08532    1.000
    N5536    N        0.95543    0.85246    0.08764    1.000
    Si5537   Si       0.94782    0.81060    0.07929    1.000
    N5538    N        0.89009    0.86608    0.07464    1.000
    N5539    N        0.90649    0.79489    0.06885    1.000
    Si5540   Si       0.93032    0.87981    0.06319    1.000
    N5541    N        0.76923    0.88782    0.06364    1.000
    Si5542   Si       0.77115    0.93136    0.06891    1.000
    N5543    N        0.79732    0.93885    0.10315    1.000
    N5544    N        0.82014    0.99874    0.07970    1.000
    N5545    N        0.86228    0.91324    0.11239    1.000
    Si5546   Si       0.88910    0.93401    0.08399    1.000
    N5547    N        0.96192    0.98563    0.09631    1.000
    N5548    N        0.93019    0.92007    0.08092    1.000
    Si5549   Si       0.95209    0.95681    0.06700    1.000
    N5550    N        0.89894    0.96437    0.11334    1.000
    N5551    N        0.80602    0.80800    0.16063    1.000
    Si5552   Si       0.83111    0.82772    0.12569    1.000
    N5553    N        0.80073    0.86683    0.12178    1.000
    N5554    N        0.85773    0.78204    0.12290    1.000
    N5555    N        0.86734    0.84594    0.14243    1.000
    N5556    N        0.98120    0.84051    0.14986    1.000
    Si5557   Si       0.88701    0.87618    0.11665    1.000
    Si5558   Si       0.98433    0.79573    0.14842    1.000
    N5559    N        0.95525    0.78742    0.11801    1.000
    N5560    N        0.84227    0.98093    0.14647    1.000
    N5561    N        0.82900    0.91888    0.16206    1.000
    N5562    N        0.77183    0.99804    0.13224    1.000
    Si5563   Si       0.75544    0.97779    0.16590    1.000
    Si5564   Si       0.81931    0.90631    0.12137    1.000
    Si5565   Si       0.80900    0.97828    0.11574    1.000
    N5566    N        0.91543    0.89396    0.14651    1.000
    Si5567   Si       0.86710    0.94445    0.14522    1.000
    N5568    N        0.95550    0.95690    0.15789    1.000
    Si5569   Si       0.95401    0.91315    0.15035    1.000
    Si5570   Si       0.93512    0.98345    0.12919    1.000
    N5571    N        0.76325    0.82705    0.21497    1.000
    N5572    N        0.75448    0.76968    0.19411    1.000
    N5573    N        0.81366    0.78124    0.22556    1.000
    Si5574   Si       0.83118    0.78311    0.18523    1.000
    Si5575   Si       0.76412    0.80863    0.17489    1.000
    Si5576   Si       0.77158    0.78360    0.23234    1.000
    N5577    N        0.86923    0.80288    0.19798    1.000
    Si5578   Si       0.92683    0.78591    0.18853    1.000
    N5579    N        0.97269    0.77937    0.18839    1.000
    Si5580   Si       0.96627    0.85188    0.18934    1.000
    N5581    N        0.88081    0.87596    0.20633    1.000
    N5582    N        0.92759    0.82985    0.18362    1.000
    Si5583   Si       0.88548    0.84007    0.18184    1.000
    N5584    N        0.92213    0.77513    0.23027    1.000
    N5585    N        0.81608    0.90278    0.22750    1.000
    N5586    N        0.75684    0.99832    0.20426    1.000
    Si5587   Si       0.84083    0.99640    0.18692    1.000
    N5588    N        0.82368    0.96601    0.21066    1.000
    Si5589   Si       0.80559    0.93027    0.19485    1.000
    N5590    N        0.76297    0.93686    0.17988    1.000
    Si5591   Si       0.91054    0.90389    0.19298    1.000
    N5592    N        0.93445    0.99146    0.22478    1.000
    Si5593   Si       0.89859    0.96611    0.21940    1.000
    N5594    N        0.89160    0.94237    0.18310    1.000
    N5595    N        0.95773    0.89473    0.19353    1.000
    N5596    N        0.87834    0.00487    0.20574    1.000
    Si5597   Si       0.96363    0.92165    0.22915    1.000
    N5598    N        0.83807    0.83925    0.24780    1.000
    Si5599   Si       0.85074    0.79924    0.24096    1.000
    Si5600   Si       0.85082    0.87873    0.23704    1.000
    Si5601   Si       0.81476    0.84022    0.28561    1.000
    N5602    N        0.75972    0.76035    0.26520    1.000
    N5603    N        0.87325    0.78651    0.27623    1.000
    Si5604   Si       0.91516    0.77636    0.27445    1.000
    N5605    N        0.80975    0.00506    0.25668    1.000
    N5606    N        0.78486    0.94522    0.26328    1.000
    Si5607   Si       0.82705    0.96306    0.25595    1.000
    Si5608   Si       0.76002    0.97583    0.27977    1.000
    Si5609   Si       0.78444    0.90155    0.25767    1.000
    N5610    N        0.74822    0.89223    0.23783    1.000
    N5611    N        0.86447    0.89684    0.27488    1.000
    N5612    N        0.92155    0.92266    0.23577    1.000
    N5613    N        0.98749    0.90366    0.26278    1.000
    Si5614   Si       0.89769    0.92512    0.27301    1.000
    N5615    N        0.87497    0.96123    0.25632    1.000
    N5616    N        0.83876    0.82767    0.31952    1.000
    Si5617   Si       0.85141    0.78717    0.31516    1.000
    Si5618   Si       0.76674    0.85790    0.31703    1.000
    Si5619   Si       0.77476    0.77811    0.30267    1.000
    N5620    N        0.74994    0.76710    0.33709    1.000
    N5621    N        0.77707    0.82105    0.29751    1.000
    N5622    N        0.81569    0.76334    0.30811    1.000
    N5623    N        0.79857    0.88120    0.29213    1.000
    Si5624   Si       0.91595    0.81007    0.34055    1.000
    N5625    N        0.93838    0.79728    0.30294    1.000
    Si5626   Si       0.98128    0.79220    0.30493    1.000
    N5627    N        0.89873    0.84921    0.34716    1.000
    N5628    N        0.87853    0.78378    0.34766    1.000
    Si5629   Si       0.83353    0.90616    0.30506    1.000
    N5630    N        0.83432    0.95013    0.30206    1.000
    N5631    N        0.77894    0.99868    0.31565    1.000
    N5632    N        0.83550    0.89281    0.34649    1.000
    N5633    N        0.77226    0.92906    0.34675    1.000
    N5634    N        0.89922    0.93788    0.31454    1.000
    N5635    N        0.91121    0.00110    0.29794    1.000
    Si5636   Si       0.93376    0.93893    0.33839    1.000
    Si5637   Si       0.87211    0.97372    0.30278    1.000
    N5638    N        0.96495    0.95409    0.31165    1.000
    Si5639   Si       0.95373    0.99606    0.30152    1.000
    N5640    N        0.84864    0.83565    0.38983    1.000
    Si5641   Si       0.75150    0.83827    0.39445    1.000
    N5642    N        0.76974    0.86118    0.36109    1.000
    N5643    N        0.83618    0.76491    0.39902    1.000
    N5644    N        0.78749    0.81883    0.40563    1.000
    Si5645   Si       0.85478    0.85480    0.35062    1.000
    Si5646   Si       0.86547    0.79508    0.38777    1.000
    N5647    N        0.94825    0.81109    0.37123    1.000
    Si5648   Si       0.91121    0.87878    0.37661    1.000
    N5649    N        0.74367    0.98254    0.37240    1.000
    N5650    N        0.81372    0.99065    0.37236    1.000
    Si5651   Si       0.79457    0.89675    0.36360    1.000
    N5652    N        0.80558    0.89635    0.40751    1.000
    Si5653   Si       0.78011    0.97166    0.34997    1.000
    Si5654   Si       0.98347    0.89891    0.36836    1.000
    N5655    N        0.88059    0.89987    0.40162    1.000
    N5656    N        0.98703    0.93852    0.38802    1.000
    Si5657   Si       0.89052    0.97833    0.39733    1.000
    N5658    N        0.94166    0.89926    0.35925    1.000
    N5659    N        0.92343    0.96307    0.37519    1.000
    Si5660   Si       0.95379    0.96611    0.40585    1.000
    N5661    N        0.82237    0.84661    0.45559    1.000
    Si5662   Si       0.79903    0.77760    0.41871    1.000
    Si5663   Si       0.81791    0.85094    0.41398    1.000
    N5664    N        0.80339    0.78001    0.46161    1.000
    N5665    N        0.97015    0.81297    0.43345    1.000
    Si5666   Si       0.97876    0.77201    0.44463    1.000
    N5667    N        0.92376    0.85902    0.41751    1.000
    N5668    N        0.89976    0.78806    0.41622    1.000
    Si5669   Si       0.93238    0.81652    0.41194    1.000
    Si5670   Si       0.89996    0.88701    0.43975    1.000
    Si5671   Si       0.77232    0.91505    0.43057    1.000
    N5672    N        0.78006    0.95769    0.42734    1.000
    N5673    N        0.85076    0.91161    0.45850    1.000
    Si5674   Si       0.84575    0.92032    0.41719    1.000
    Si5675   Si       0.76977    0.99335    0.45839    1.000
    Si5676   Si       0.81567    0.98004    0.41392    1.000
    N5677    N        0.85426    0.96079    0.41374    1.000
    N5678    N        0.98501    0.99641    0.41633    1.000
    N5679    N        0.91389    0.92043    0.46424    1.000
    Si5680   Si       0.97941    0.00796    0.45858    1.000
    N5681    N        0.97674    0.94784    0.44934    1.000
    N5682    N        0.92120    0.98096    0.43268    1.000
    N5683    N        0.75998    0.82536    0.49108    1.000
    Si5684   Si       0.80288    0.81793    0.48357    1.000
    Si5685   Si       0.84522    0.87457    0.47846    1.000
    N5686    N        0.82633    0.87522    0.51611    1.000
    N5687    N        0.82570    0.81016    0.51955    1.000
    Si5688   Si       0.86084    0.78205    0.52095    1.000
    N5689    N        0.90034    0.79100    0.50009    1.000
    Si5690   Si       0.90224    0.83480    0.50536    1.000
    N5691    N        0.93788    0.85891    0.51242    1.000
    Si5692   Si       0.97838    0.85554    0.50143    1.000
    N5693    N        0.96710    0.76765    0.48678    1.000
    N5694    N        0.88646    0.85979    0.47229    1.000
    N5695    N        0.77282    0.97368    0.49840    1.000
    Si5696   Si       0.75863    0.93256    0.50709    1.000
    N5697    N        0.83184    0.95037    0.51063    1.000
    N5698    N        0.76003    0.90534    0.47268    1.000
    Si5699   Si       0.80894    0.98670    0.52049    1.000
    N5700    N        0.95055    0.99661    0.48717    1.000
    Si5701   Si       0.86952    0.93957    0.48743    1.000
    N5702    N        0.89230    0.97629    0.49378    1.000
    Si5703   Si       0.92152    0.89971    0.50487    1.000
    N5704    N        0.88594    0.91284    0.52313    1.000
    N5705    N        0.95386    0.92839    0.51111    1.000
    Si5706   Si       0.94140    0.95325    0.47487    1.000
    Si5707   Si       0.90996    0.00574    0.46658    1.000
    N5708    N        0.78730    0.85594    0.56398    1.000
    Si5709   Si       0.82787    0.84478    0.54746    1.000
    N5710    N        0.74677    0.80294    0.55464    1.000
    Si5711   Si       0.77216    0.82105    0.58483    1.000
    Si5712   Si       0.74815    0.76024    0.55264    1.000
    N5713    N        0.87304    0.78101    0.56123    1.000
    N5714    N        0.87884    0.84188    0.53919    1.000
    Si5715   Si       0.88146    0.82290    0.57931    1.000
    Si5716   Si       0.76834    0.89203    0.57498    1.000
    N5717    N        0.84107    0.90479    0.57344    1.000
    N5718    N        0.80536    0.98756    0.56419    1.000
    N5719    N        0.77987    0.91683    0.54114    1.000
    Si5720   Si       0.82154    0.91370    0.53425    1.000
    Si5721   Si       0.76927    0.00707    0.58140    1.000
    Si5722   Si       0.87973    0.92490    0.56441    1.000
    N5723    N        0.87198    0.96697    0.56372    1.000
    N5724    N        0.93393    0.98573    0.55290    1.000
    Si5725   Si       0.89350    0.99225    0.53517    1.000
    Si5726   Si       0.94392    0.95432    0.57942    1.000
    N5727    N        0.91457    0.91997    0.58563    1.000
    N5728    N        0.97973    0.92718    0.57391    1.000
    Si5729   Si       0.96299    0.00710    0.52798    1.000
    Si5730   Si       0.83257    0.81526    0.62695    1.000
    N5731    N        0.79906    0.79309    0.60516    1.000
    N5732    N        0.75317    0.84286    0.61610    1.000
    N5733    N        0.84154    0.83888    0.59001    1.000
    Si5734   Si       0.77565    0.86992    0.64145    1.000
    Si5735   Si       0.83414    0.87855    0.60837    1.000
    N5736    N        0.81426    0.85390    0.64490    1.000
    N5737    N        0.98765    0.81444    0.60863    1.000
    N5738    N        0.87104    0.79365    0.62568    1.000
    Si5739   Si       0.94483    0.81511    0.61116    1.000
    N5740    N        0.92958    0.77823    0.59524    1.000
    N5741    N        0.91747    0.84305    0.59294    1.000
    N5742    N        0.87458    0.88043    0.62916    1.000
    Si5743   Si       0.91333    0.88358    0.60900    1.000
    Si5744   Si       0.88878    0.76038    0.60024    1.000
    N5745    N        0.76720    0.97626    0.61377    1.000
    Si5746   Si       0.79396    0.94414    0.62726    1.000
    N5747    N        0.78869    0.90334    0.61254    1.000
    N5748    N        0.83408    0.95937    0.62347    1.000
    Si5749   Si       0.84144    0.98454    0.58787    1.000
    N5750    N        0.95406    0.96027    0.62237    1.000
    Si5751   Si       0.97805    0.92319    0.61671    1.000
    N5752    N        0.95004    0.89137    0.63231    1.000
    N5753    N        0.82571    0.79718    0.66910    1.000
    Si5754   Si       0.82162    0.83711    0.68616    1.000
    N5755    N        0.85708    0.85832    0.69605    1.000
    Si5756   Si       0.80465    0.76264    0.68572    1.000
    Si5757   Si       0.86913    0.77248    0.66582    1.000
    Si5758   Si       0.94019    0.78995    0.68587    1.000
    Si5759   Si       0.95419    0.86218    0.66471    1.000
    N5760    N        0.91827    0.86844    0.68991    1.000
    N5761    N        0.94704    0.81997    0.65656    1.000
    N5762    N        0.89690    0.79169    0.69458    1.000
    N5763    N        0.74883    0.88246    0.67451    1.000
    N5764    N        0.83896    0.98313    0.68705    1.000
    N5765    N        0.78502    0.93820    0.66963    1.000
    Si5766   Si       0.86305    0.96476    0.65583    1.000
    Si5767   Si       0.74328    0.92700    0.67858    1.000
    N5768    N        0.95191    0.96843    0.69372    1.000
    N5769    N        0.89619    0.99102    0.64221    1.000
    Si5770   Si       0.93715    0.98201    0.65531    1.000
    Si5771   Si       0.88135    0.88626    0.66990    1.000
    N5772    N        0.87698    0.92806    0.67625    1.000
    Si5773   Si       0.79082    0.80205    0.74803    1.000
    Si5774   Si       0.75739    0.86310    0.71626    1.000
    N5775    N        0.79077    0.83234    0.71483    1.000
    N5776    N        0.79465    0.76328    0.72861    1.000
    N5777    N        0.95171    0.80077    0.72685    1.000
    Si5778   Si       0.90967    0.79408    0.73956    1.000
    Si5779   Si       0.89048    0.85765    0.72285    1.000
    N5780    N        0.88510    0.82893    0.75642    1.000
    N5781    N        0.77428    0.89069    0.74505    1.000
    N5782    N        0.77602    0.97431    0.72472    1.000
    N5783    N        0.82627    0.92702    0.72585    1.000
    Si5784   Si       0.75660    0.94581    0.75247    1.000
    N5785    N        0.83674    0.00473    0.75289    1.000
    Si5786   Si       0.80825    0.95666    0.70120    1.000
    Si5787   Si       0.86351    0.00158    0.71888    1.000
    Si5788   Si       0.87030    0.93170    0.71811    1.000
    Si5789   Si       0.93023    0.96663    0.73073    1.000
    N5790    N        0.95192    0.00105    0.74535    1.000
    N5791    N        0.88638    0.89750    0.73900    1.000
    N5792    N        0.88739    0.96837    0.73111    1.000
    Si5793   Si       0.98400    0.99001    0.71780    1.000
    N5794    N        0.82066    0.80937    0.77934    1.000
    Si5795   Si       0.85092    0.83926    0.78281    1.000
    Si5796   Si       0.82385    0.78095    0.81202    1.000
    N5797    N        0.75114    0.80898    0.76497    1.000
    N5798    N        0.83294    0.87978    0.78691    1.000
    Si5799   Si       0.91588    0.83645    0.79295    1.000
    N5800    N        0.92884    0.79499    0.79304    1.000
    N5801    N        0.93758    0.86684    0.77254    1.000
    Si5802   Si       0.98026    0.87292    0.76583    1.000
    N5803    N        0.88074    0.84974    0.81667    1.000
    Si5804   Si       0.90040    0.76104    0.79617    1.000
    Si5805   Si       0.81563    0.97853    0.78352    1.000
    N5806    N        0.79234    0.94185    0.78085    1.000
    N5807    N        0.84425    0.97476    0.81581    1.000
    Si5808   Si       0.86006    0.88923    0.82090    1.000
    Si5809   Si       0.81045    0.90708    0.76173    1.000
    Si5810   Si       0.95520    0.95270    0.79883    1.000
    Si5811   Si       0.91390    0.90552    0.77040    1.000
    N5812    N        0.88886    0.91766    0.80475    1.000
    N5813    N        0.92119    0.98022    0.80566    1.000
    N5814    N        0.94010    0.93753    0.76006    1.000
    N5815    N        0.80309    0.80145    0.84179    1.000
    Si5816   Si       0.77967    0.83172    0.86063    1.000
    N5817    N        0.75725    0.85391    0.82826    1.000
    Si5818   Si       0.90217    0.84472    0.85526    1.000
    N5819    N        0.94063    0.83820    0.83650    1.000
    Si5820   Si       0.95463    0.79740    0.83004    1.000
    N5821    N        0.92948    0.77849    0.86173    1.000
    Si5822   Si       0.88452    0.77760    0.86181    1.000
    Si5823   Si       0.96722    0.87034    0.83293    1.000
    N5824    N        0.87636    0.81718    0.87835    1.000
    N5825    N        0.98749    0.88050    0.86894    1.000
    N5826    N        0.90922    0.88356    0.87454    1.000
    N5827    N        0.86738    0.77678    0.82152    1.000
    Si5828   Si       0.74515    0.89261    0.84085    1.000
    N5829    N        0.77965    0.91113    0.86114    1.000
    Si5830   Si       0.77153    0.95221    0.86960    1.000
    Si5831   Si       0.84549    0.97837    0.85869    1.000
    N5832    N        0.75011    0.97273    0.83866    1.000
    N5833    N        0.84846    0.90078    0.86047    1.000
    N5834    N        0.96229    0.91437    0.82310    1.000
    N5835    N        0.98047    0.96519    0.86452    1.000
    N5836    N        0.88345    0.95697    0.86247    1.000
    Si5837   Si       0.98901    0.92264    0.85903    1.000
    Si5838   Si       0.88548    0.95948    0.81758    1.000
    N5839    N        0.82344    0.78899    0.91464    1.000
    Si5840   Si       0.84219    0.82532    0.90383    1.000
    N5841    N        0.80920    0.85008    0.88633    1.000
    N5842    N        0.74361    0.82395    0.88823    1.000
    Si5843   Si       0.73937    0.83961    0.92867    1.000
    Si5844   Si       0.94943    0.76307    0.89578    1.000
    N5845    N        0.98941    0.84311    0.92874    1.000
    N5846    N        0.74373    0.88425    0.92929    1.000
    N5847    N        0.81347    0.90236    0.92867    1.000
    Si5848   Si       0.81328    0.89484    0.88497    1.000
    Si5849   Si       0.75196    0.98091    0.93153    1.000
    N5850    N        0.81180    0.96522    0.88223    1.000
    N5851    N        0.74486    0.94849    0.90418    1.000
    Si5852   Si       0.88254    0.91728    0.88082    1.000
    N5853    N        0.87995    0.91979    0.92423    1.000
    Si5854   Si       0.96038    0.99026    0.89546    1.000
    N5855    N        0.93813    0.96003    0.92001    1.000
    N5856    N        0.77396    0.83837    0.95606    1.000
    Si5857   Si       0.83726    0.77179    0.95516    1.000
    Si5858   Si       0.77790    0.81055    0.98735    1.000
    N5859    N        0.80798    0.77505    0.98630    1.000
    N5860    N        0.85664    0.84626    0.93981    1.000
    Si5861   Si       0.78113    0.88340    0.95313    1.000
    N5862    N        0.87593    0.78707    0.96622    1.000
    Si5863   Si       0.87874    0.83295    0.97652    1.000
    N5864    N        0.97947    0.78568    0.97353    1.000
    N5865    N        0.92613    0.83442    0.97741    1.000
    Si5866   Si       0.92705    0.87814    0.98472    1.000
    N5867    N        0.88339    0.88177    0.98250    1.000
    N5868    N        0.83297    0.98285    0.94043    1.000
    Si5869   Si       0.85514    0.89278    0.94679    1.000
    N5870    N        0.77692    0.95633    0.96083    1.000
    N5871    N        0.83797    0.92592    0.98018    1.000
    Si5872   Si       0.81459    0.94205    0.94835    1.000
    Si5873   Si       0.86059    0.99142    0.97265    1.000
    N5874    N        0.77502    0.89673    0.99358    1.000
    Si5875   Si       0.97486    0.94908    0.94260    1.000
    N5876    N        0.94408    0.91256    0.96320    1.000
    N5877    N        0.89502    0.96577    0.97841    1.000
    Si5878   Si       0.91140    0.94001    0.94885    1.000
    N5879    N        0.97780    0.96100    0.98649    1.000
