# CIF file generated by openbabel 3.1.1, see https://openbabel.org
data_I
_chemical_name_common '3.01-20.aims'
_cell_length_a 39.9845
_cell_length_b 39.9845
_cell_length_c 39.9845
_cell_angle_alpha 90
_cell_angle_beta 90
_cell_angle_gamma 90
loop_
    _atom_site_label
    _atom_site_type_symbol
    _atom_site_fract_x
    _atom_site_fract_y
    _atom_site_fract_z
    _atom_site_occupancy
    N0       N        0.01197    0.02310    0.04844    1.000
    N1       N        0.02996    0.08555    0.02745    1.000
    Si2      Si       0.02120    0.12762    0.02377    1.000
    Si3      Si       0.99697    0.06609    0.05019    1.000
    Si4      Si       0.99302    0.01946    0.08823    1.000
    Si5      Si       0.04256    0.05503    0.99891    1.000
    N6       N        0.02399    0.14485    0.06185    1.000
    N7       N        0.99268    0.20502    0.08206    1.000
    N8       N        0.99234    0.21011    0.00911    1.000
    Si9      Si       0.02030    0.19989    0.11697    1.000
    N10      N        0.00112    0.02958    0.16839    1.000
    Si11     Si       0.02352    0.06668    0.16007    1.000
    N12      N        0.04081    0.07427    0.20000    1.000
    N13      N        0.99399    0.09919    0.15183    1.000
    Si14     Si       0.01765    0.09957    0.22838    1.000
    N15      N        0.02830    0.23840    0.13518    1.000
    N16      N        0.00163    0.17477    0.14791    1.000
    Si17     Si       0.01460    0.13682    0.16455    1.000
    Si18     Si       0.99197    0.25355    0.14939    1.000
    N19      N        0.00567    0.13532    0.20670    1.000
    N20      N        0.02714    0.11063    0.27037    1.000
    N21      N        0.03056    0.06293    0.34910    1.000
    Si22     Si       0.04315    0.02434    0.33602    1.000
    Si23     Si       0.99028    0.12576    0.28895    1.000
    Si24     Si       0.02390    0.18910    0.31629    1.000
    N25      N        0.00265    0.15013    0.32190    1.000
    Si26     Si       0.00039    0.22930    0.26199    1.000
    N27      N        0.03475    0.19971    0.35760    1.000
    N28      N        0.99523    0.21969    0.30462    1.000
    Si29     Si       0.99810    0.13903    0.36184    1.000
    N30      N        0.01195    0.18855    0.24841    1.000
    N31      N        0.03249    0.25728    0.25821    1.000
    N32      N        0.03698    0.08475    0.42327    1.000
    Si33     Si       0.99667    0.10110    0.42258    1.000
    Si34     Si       0.04602    0.09132    0.37928    1.000
    N35      N        0.99555    0.19230    0.48870    1.000
    N36      N        0.01560    0.20273    0.42432    1.000
    Si37     Si       0.00145    0.20758    0.38255    1.000
    N38      N        0.03832    0.13557    0.37818    1.000
    Si39     Si       0.99004    0.17881    0.44795    1.000
    N40      N        0.98886    0.13540    0.44761    1.000
    N41      N        0.01977    0.11368    0.58492    1.000
    N42      N        0.00482    0.07281    0.53113    1.000
    Si43     Si       0.00822    0.11430    0.54258    1.000
    Si44     Si       0.04328    0.05628    0.52841    1.000
    N45      N        0.03470    0.13858    0.51811    1.000
    Si46     Si       0.03640    0.21665    0.58410    1.000
    Si47     Si       0.03362    0.18014    0.50706    1.000
    N48      N        0.99626    0.22172    0.59577    1.000
    N49      N        0.00127    0.25757    0.51932    1.000
    Si50     Si       0.04258    0.25231    0.53562    1.000
    N51      N        0.04288    0.20796    0.53984    1.000
    N52      N        0.02477    0.04464    0.67837    1.000
    N53      N        0.01115    0.10308    0.65705    1.000
    Si54     Si       0.99504    0.07528    0.68767    1.000
    N55      N        0.00056    0.00957    0.72978    1.000
    Si56     Si       0.04541    0.07500    0.65270    1.000
    N57      N        0.98868    0.09497    0.72601    1.000
    N58      N        0.02463    0.20590    0.72429    1.000
    N59      N        0.04511    0.15809    0.67153    1.000
    Si60     Si       0.00444    0.14517    0.65941    1.000
    Si61     Si       0.04265    0.19828    0.65257    1.000
    Si62     Si       0.02011    0.16217    0.72757    1.000
    N63      N        0.00200    0.21125    0.65983    1.000
    N64      N        0.02666    0.07788    0.77692    1.000
    N65      N        0.01403    0.06712    0.84154    1.000
    Si66     Si       0.03678    0.04822    0.81011    1.000
    N67      N        0.01684    0.01196    0.79757    1.000
    Si68     Si       0.02916    0.23818    0.81204    1.000
    Si69     Si       0.02602    0.16163    0.80496    1.000
    N70      N        0.99867    0.16068    0.76699    1.000
    N71      N        0.99596    0.22631    0.78808    1.000
    N72      N        0.01915    0.25200    0.85243    1.000
    N73      N        0.99402    0.15926    0.83431    1.000
    Si74     Si       0.00699    0.06554    0.95032    1.000
    Si75     Si       0.03403    0.06102    0.87944    1.000
    N76      N        0.00625    0.03496    0.98154    1.000
    N77      N        0.00779    0.04982    0.91133    1.000
    N78      N        0.02135    0.20389    0.94276    1.000
    Si79     Si       0.01127    0.00701    0.90186    1.000
    N80      N        0.98743    0.16348    0.90532    1.000
    Si81     Si       0.00452    0.23194    0.97052    1.000
    Si82     Si       0.02716    0.17045    0.91581    1.000
    Si83     Si       0.99539    0.23179    0.74561    1.000
    Si84     Si       0.00541    0.34408    0.03580    1.000
    N85      N        0.00734    0.26644    0.05223    1.000
    N86      N        0.03978    0.31830    0.02173    1.000
    Si87     Si       0.03997    0.27495    0.02702    1.000
    N88      N        0.02481    0.38018    0.04664    1.000
    N89      N        0.00381    0.47118    0.02109    1.000
    Si90     Si       0.02106    0.41669    0.11489    1.000
    N91      N        0.04571    0.43551    0.22110    1.000
    N92      N        0.99154    0.43769    0.08928    1.000
    N93      N        0.00428    0.50700    0.07790    1.000
    N94      N        0.99757    0.38063    0.12271    1.000
    N95      N        0.02719    0.32048    0.22791    1.000
    Si96     Si       0.03393    0.29701    0.19125    1.000
    N97      N        0.99473    0.27539    0.18497    1.000
    Si98     Si       0.99364    0.37551    0.16726    1.000
    N99      N        0.04557    0.31716    0.15644    1.000
    N100     N        0.03217    0.38150    0.18614    1.000
    N101     N        0.01224    0.43815    0.15276    1.000
    Si102    Si       0.03167    0.47593    0.22441    1.000
    N103     N        0.99055    0.47813    0.23836    1.000
    Si104    Si       0.02289    0.29881    0.26535    1.000
    N105     N        0.00596    0.36026    0.32300    1.000
    Si106    Si       0.99528    0.34945    0.36508    1.000
    Si107    Si       0.04293    0.35620    0.30383    1.000
    N108     N        0.03603    0.44801    0.29069    1.000
    Si109    Si       0.99829    0.47185    0.28167    1.000
    N110     N        0.04370    0.43300    0.36283    1.000
    N111     N        0.99663    0.35922    0.44068    1.000
    Si112    Si       0.99439    0.34971    0.48302    1.000
    Si113    Si       0.04001    0.35329    0.42999    1.000
    N114     N        0.02524    0.27504    0.40359    1.000
    N115     N        0.03489    0.35931    0.38319    1.000
    N116     N        0.03758    0.34441    0.48681    1.000
    N117     N        0.99298    0.43012    0.41935    1.000
    Si118    Si       0.02756    0.44957    0.39987    1.000
    N119     N        0.00779    0.48833    0.39442    1.000
    N120     N        0.00253    0.51259    0.29304    1.000
    N121     N        0.01439    0.31648    0.54912    1.000
    Si122    Si       0.02449    0.34010    0.58468    1.000
    N123     N        0.00032    0.37324    0.57809    1.000
    N124     N        0.01791    0.31406    0.62135    1.000
    N125     N        0.01542    0.43342    0.54398    1.000
    Si126    Si       0.00533    0.47567    0.56176    1.000
    N127     N        0.04190    0.47652    0.58364    1.000
    Si128    Si       0.99039    0.39983    0.54408    1.000
    N129     N        0.99855    0.37605    0.72390    1.000
    Si130    Si       0.00829    0.35575    0.68693    1.000
    N131     N        0.00433    0.27130    0.73374    1.000
    N132     N        0.00052    0.37769    0.64852    1.000
    N133     N        0.04396    0.42786    0.71427    1.000
    N134     N        0.03761    0.43877    0.64615    1.000
    Si135    Si       0.99824    0.42134    0.65083    1.000
    Si136    Si       0.00264    0.41886    0.72263    1.000
    N137     N        0.01464    0.35235    0.86019    1.000
    Si138    Si       0.00728    0.35065    0.75872    1.000
    N139     N        0.01071    0.37352    0.79441    1.000
    Si140    Si       0.03887    0.36674    0.82784    1.000
    Si141    Si       0.04148    0.28346    0.75441    1.000
    N142     N        0.04391    0.32634    0.75248    1.000
    Si143    Si       0.01816    0.42815    0.85438    1.000
    N144     N        0.02551    0.47228    0.85420    1.000
    Si145    Si       0.00873    0.30468    0.92046    1.000
    N146     N        0.04035    0.27544    0.92069    1.000
    N147     N        0.03208    0.34391    0.92358    1.000
    Si148    Si       0.01103    0.37303    0.89936    1.000
    N149     N        0.03731    0.25670    0.98647    1.000
    N150     N        0.00454    0.39733    0.96207    1.000
    N151     N        0.98995    0.46981    0.94682    1.000
    Si152    Si       0.01056    0.43098    0.93680    1.000
    N153     N        0.00987    0.41683    0.89608    1.000
    Si154    Si       0.98974    0.49288    0.84378    1.000
    N155     N        0.04446    0.49112    0.74344    1.000
    N156     N        0.01258    0.55779    0.03226    1.000
    Si157    Si       0.03007    0.51870    0.11086    1.000
    N158     N        0.02844    0.62650    0.01071    1.000
    N159     N        0.04405    0.61284    0.07737    1.000
    Si160    Si       0.04621    0.57218    0.05706    1.000
    N161     N        0.02785    0.74170    0.07708    1.000
    N162     N        0.01499    0.70987    0.01608    1.000
    Si163    Si       0.02394    0.64196    0.04995    1.000
    Si164    Si       0.04744    0.71515    0.04777    1.000
    N165     N        0.98924    0.72427    0.19480    1.000
    Si166    Si       0.00502    0.57085    0.22045    1.000
    N167     N        0.00988    0.54393    0.14345    1.000
    N168     N        0.04188    0.60240    0.14513    1.000
    Si169    Si       0.00709    0.62778    0.15866    1.000
    Si170    Si       0.04060    0.56487    0.16360    1.000
    N171     N        0.99608    0.60562    0.19268    1.000
    Si172    Si       0.00978    0.68684    0.20672    1.000
    N173     N        0.02108    0.66670    0.16943    1.000
    Si174    Si       0.02236    0.74864    0.17197    1.000
    N175     N        0.04630    0.69303    0.22871    1.000
    N176     N        0.99209    0.75922    0.14544    1.000
    N177     N        0.01329    0.54610    0.35005    1.000
    N178     N        0.00612    0.60515    0.32318    1.000
    Si179    Si       0.03676    0.57805    0.33589    1.000
    Si180    Si       0.04657    0.51997    0.29161    1.000
    Si181    Si       0.98858    0.52816    0.45318    1.000
    N182     N        0.99284    0.59765    0.25232    1.000
    Si183    Si       0.01802    0.67818    0.33412    1.000
    N184     N        0.01298    0.68059    0.29109    1.000
    N185     N        0.03090    0.71853    0.34418    1.000
    N186     N        0.00932    0.60094    0.46148    1.000
    Si187    Si       0.01710    0.52919    0.39002    1.000
    N188     N        0.00536    0.62108    0.39097    1.000
    N189     N        0.02654    0.51669    0.46968    1.000
    N190     N        0.99387    0.55170    0.41746    1.000
    Si191    Si       0.99111    0.59342    0.42256    1.000
    N192     N        0.04637    0.66788    0.40940    1.000
    Si193    Si       0.02972    0.70184    0.49472    1.000
    N194     N        0.99107    0.71183    0.40221    1.000
    N195     N        0.00309    0.73150    0.47469    1.000
    Si196    Si       0.02644    0.73037    0.38631    1.000
    Si197    Si       0.00292    0.66418    0.40346    1.000
    N198     N        0.02245    0.55981    0.59382    1.000
    Si199    Si       0.01757    0.55297    0.55172    1.000
    N200     N        0.00325    0.59034    0.52839    1.000
    N201     N        0.00596    0.51217    0.53698    1.000
    Si202    Si       0.02502    0.62873    0.52766    1.000
    Si203    Si       0.04037    0.51085    0.51008    1.000
    Si204    Si       0.99011    0.58099    0.61594    1.000
    N205     N        0.03201    0.63739    0.57196    1.000
    Si206    Si       0.00121    0.74017    0.58707    1.000
    N207     N        0.01027    0.70027    0.57581    1.000
    N208     N        0.00719    0.66715    0.51102    1.000
    Si209    Si       0.99458    0.65730    0.58384    1.000
    Si210    Si       0.01316    0.51796    0.73306    1.000
    N211     N        0.02349    0.54797    0.70398    1.000
    N212     N        0.99862    0.59472    0.65562    1.000
    Si213    Si       0.98844    0.57226    0.69255    1.000
    N214     N        0.01017    0.71567    0.67882    1.000
    Si215    Si       0.01151    0.63668    0.65753    1.000
    Si216    Si       0.01767    0.68716    0.71224    1.000
    N217     N        0.00134    0.70948    0.74596    1.000
    N218     N        0.00082    0.64780    0.70111    1.000
    Si219    Si       0.03796    0.74908    0.67877    1.000
    N220     N        0.99757    0.66773    0.62840    1.000
    N221     N        0.04428    0.74879    0.58655    1.000
    N222     N        0.01321    0.54128    0.77071    1.000
    Si223    Si       0.02181    0.57130    0.84558    1.000
    N224     N        0.00544    0.60922    0.82989    1.000
    N225     N        0.99741    0.53577    0.83810    1.000
    N226     N        0.04252    0.60625    0.76788    1.000
    Si227    Si       0.01616    0.63047    0.79253    1.000
    Si228    Si       0.02729    0.75788    0.92730    1.000
    Si229    Si       0.01901    0.74858    0.75228    1.000
    N230     N        0.02878    0.67007    0.79661    1.000
    N231     N        0.99461    0.67559    0.86678    1.000
    N232     N        0.04351    0.74002    0.78609    1.000
    Si233    Si       0.99237    0.68548    0.77933    1.000
    Si234    Si       0.04328    0.75478    0.82705    1.000
    Si235    Si       0.02799    0.61707    0.97030    1.000
    N236     N        0.00928    0.58055    0.95949    1.000
    N237     N        0.03305    0.57371    0.88889    1.000
    Si238    Si       0.99889    0.57914    0.91514    1.000
    N239     N        0.03243    0.51391    0.92614    1.000
    Si240    Si       0.99296    0.51464    0.93693    1.000
    Si241    Si       0.99169    0.56156    0.99414    1.000
    Si242    Si       0.04318    0.72586    0.98727    1.000
    N243     N        0.00686    0.65214    0.95001    1.000
    Si244    Si       0.03172    0.69900    0.87539    1.000
    N245     N        0.00913    0.72714    0.90342    1.000
    N246     N        0.01675    0.75592    0.96941    1.000
    N247     N        0.01256    0.81090    0.09520    1.000
    Si248    Si       0.01221    0.77908    0.06532    1.000
    N249     N        0.00381    0.88015    0.09097    1.000
    N250     N        0.04369    0.95315    0.24127    1.000
    Si251    Si       0.04451    0.88306    0.10541    1.000
    Si252    Si       0.02993    0.95823    0.08819    1.000
    N253     N        0.02564    0.99727    0.10998    1.000
    Si254    Si       0.00936    0.92656    0.99833    1.000
    Si255    Si       0.99292    0.00484    0.01189    1.000
    N256     N        0.02371    0.90043    0.19724    1.000
    N257     N        0.99767    0.83522    0.18784    1.000
    Si258    Si       0.03230    0.85962    0.18437    1.000
    Si259    Si       0.00612    0.80292    0.21552    1.000
    N260     N        0.03784    0.77982    0.19615    1.000
    Si261    Si       0.99308    0.92077    0.17486    1.000
    Si262    Si       0.04202    0.91027    0.23719    1.000
    N263     N        0.99705    0.00571    0.23204    1.000
    Si264    Si       0.01604    0.96948    0.21498    1.000
    Si265    Si       0.01142    0.98978    0.15148    1.000
    N266     N        0.04174    0.97852    0.18096    1.000
    N267     N        0.02797    0.78434    0.30498    1.000
    N268     N        0.01820    0.82396    0.25099    1.000
    N269     N        0.99361    0.84619    0.31459    1.000
    Si270    Si       0.99373    0.85300    0.27118    1.000
    Si271    Si       0.00452    0.87632    0.34308    1.000
    Si272    Si       0.99168    0.80267    0.31953    1.000
    N273     N        0.01463    0.89204    0.26607    1.000
    N274     N        0.02012    0.98900    0.34867    1.000
    N275     N        0.00231    0.96329    0.28766    1.000
    Si276    Si       0.04525    0.97102    0.28199    1.000
    N277     N        0.99539    0.91833    0.33186    1.000
    Si278    Si       0.99279    0.92075    0.28844    1.000
    N279     N        0.03031    0.77374    0.38025    1.000
    Si280    Si       0.00543    0.77723    0.46627    1.000
    Si281    Si       0.99686    0.79816    0.39692    1.000
    N282     N        0.01585    0.82931    0.41693    1.000
    N283     N        0.04693    0.79173    0.46408    1.000
    N284     N        0.02423    0.97891    0.41772    1.000
    N285     N        0.02213    0.96665    0.49075    1.000
    N286     N        0.00965    0.89239    0.44716    1.000
    Si287    Si       0.04768    0.96524    0.45276    1.000
    N288     N        0.04738    0.87727    0.34354    1.000
    Si289    Si       0.00024    0.80107    0.53563    1.000
    Si290    Si       0.01522    0.87483    0.55963    1.000
    N291     N        0.98948    0.84189    0.54846    1.000
    N292     N        0.04304    0.79167    0.53442    1.000
    N293     N        0.00006    0.88676    0.59795    1.000
    N294     N        0.00552    0.91100    0.53568    1.000
    N295     N        0.03097    0.97314    0.60031    1.000
    Si296    Si       0.03760    0.93301    0.51726    1.000
    Si297    Si       0.04061    0.81491    0.64695    1.000
    N298     N        0.03269    0.76850    0.71715    1.000
    N299     N        0.01201    0.83818    0.72852    1.000
    N300     N        0.01807    0.77885    0.65338    1.000
    N301     N        0.01467    0.84838    0.65167    1.000
    Si302    Si       0.99833    0.87843    0.72221    1.000
    N303     N        0.02185    0.92492    0.64980    1.000
    Si304    Si       0.00404    0.95734    0.62810    1.000
    Si305    Si       0.02626    0.88621    0.63249    1.000
    N306     N        0.03163    0.90679    0.71175    1.000
    Si307    Si       0.01666    0.00450    0.68883    1.000
    Si308    Si       0.04611    0.80847    0.71713    1.000
    N309     N        0.99064    0.98503    0.65860    1.000
    N310     N        0.00263    0.76913    0.83006    1.000
    N311     N        0.02194    0.83446    0.86193    1.000
    Si312    Si       0.00892    0.87652    0.79394    1.000
    Si313    Si       0.99486    0.81078    0.83778    1.000
    N314     N        0.99736    0.83563    0.79839    1.000
    Si315    Si       0.98710    0.81908    0.75987    1.000
    N316     N        0.00548    0.89610    0.83407    1.000
    Si317    Si       0.00626    0.98088    0.82655    1.000
    N318     N        0.02250    0.95294    0.76569    1.000
    Si319    Si       0.02818    0.99527    0.76033    1.000
    Si320    Si       0.04228    0.91507    0.84845    1.000
    N321     N        0.04118    0.95741    0.83997    1.000
    Si322    Si       0.00390    0.87141    0.87591    1.000
    N323     N        0.02214    0.82041    0.98219    1.000
    N324     N        0.00084    0.86118    0.92059    1.000
    Si325    Si       0.02106    0.82667    0.93805    1.000
    N326     N        0.00261    0.79169    0.91916    1.000
    Si327    Si       0.99351    0.78803    0.99044    1.000
    Si328    Si       0.02579    0.89540    0.92901    1.000
    N329     N        0.00359    0.96959    0.99357    1.000
    N330     N        0.03224    0.90488    0.88813    1.000
    N331     N        0.00121    0.92167    0.95468    1.000
    Si332    Si       0.00185    0.96484    0.94930    1.000
    N333     N        0.03695    0.98053    0.92617    1.000
    N334     N        0.99140    0.99850    0.86377    1.000
    N335     N        0.08236    0.11743    0.09817    1.000
    N336     N        0.06765    0.02409    0.00942    1.000
    N337     N        0.08343    0.02166    0.08073    1.000
    Si338    Si       0.05555    0.01133    0.04929    1.000
    Si339    Si       0.06063    0.02103    0.11739    1.000
    Si340    Si       0.06491    0.14929    0.07565    1.000
    N341     N        0.05875    0.18519    0.10198    1.000
    N342     N        0.09540    0.14865    0.04241    1.000
    Si343    Si       0.08685    0.16221    0.00126    1.000
    N344     N        0.09490    0.20477    0.00125    1.000
    N345     N        0.09469    0.02210    0.20588    1.000
    N346     N        0.05554    0.06348    0.13153    1.000
    Si347    Si       0.08245    0.06375    0.21236    1.000
    Si348    Si       0.08042    0.09833    0.13919    1.000
    N349     N        0.05943    0.12978    0.16185    1.000
    Si350    Si       0.06891    0.25119    0.23584    1.000
    N351     N        0.08788    0.20895    0.16101    1.000
    N352     N        0.07723    0.21015    0.23163    1.000
    Si353    Si       0.09597    0.19071    0.12364    1.000
    Si354    Si       0.06620    0.24622    0.15473    1.000
    N355     N        0.07280    0.14067    0.23493    1.000
    Si356    Si       0.08955    0.13217    0.19669    1.000
    Si357    Si       0.10569    0.20423    0.20007    1.000
    N358     N        0.10618    0.09368    0.19185    1.000
    Si359    Si       0.07089    0.11026    0.26986    1.000
    Si360    Si       0.09036    0.03699    0.28192    1.000
    N361     N        0.09330    0.11828    0.30472    1.000
    N362     N        0.08411    0.07122    0.25554    1.000
    N363     N        0.05556    0.01328    0.29526    1.000
    N364     N        0.07641    0.00976    0.36540    1.000
    N365     N        0.10582    0.05075    0.32039    1.000
    N366     N        0.09613    0.16110    0.35302    1.000
    N367     N        0.06027    0.18114    0.29388    1.000
    Si368    Si       0.09578    0.16182    0.30953    1.000
    Si369    Si       0.05427    0.17851    0.25092    1.000
    N370     N        0.08928    0.08459    0.37635    1.000
    Si371    Si       0.06460    0.07018    0.45441    1.000
    N372     N        0.08486    0.10461    0.47367    1.000
    N373     N        0.09708    0.04793    0.43383    1.000
    N374     N        0.04645    0.04568    0.48521    1.000
    N375     N        0.06763    0.25027    0.44827    1.000
    N376     N        0.08205    0.20111    0.40549    1.000
    Si377    Si       0.10172    0.18434    0.49006    1.000
    Si378    Si       0.05635    0.20892    0.43959    1.000
    N379     N        0.06136    0.18637    0.47566    1.000
    Si380    Si       0.06272    0.17238    0.37666    1.000
    Si381    Si       0.10874    0.09367    0.33814    1.000
    N382     N        0.06911    0.09014    0.54146    1.000
    Si383    Si       0.06097    0.09869    0.58365    1.000
    Si384    Si       0.07384    0.11990    0.51215    1.000
    N385     N        0.09315    0.12640    0.59961    1.000
    Si386    Si       0.09650    0.03914    0.61238    1.000
    N387     N        0.06050    0.06494    0.61267    1.000
    N388     N        0.04828    0.01503    0.54161    1.000
    Si389    Si       0.09259    0.16802    0.60598    1.000
    N390     N        0.05527    0.19050    0.61053    1.000
    N391     N        0.09939    0.15334    0.52109    1.000
    N392     N        0.05516    0.25642    0.57849    1.000
    N393     N        0.07944    0.09751    0.67070    1.000
    N394     N        0.05298    0.13563    0.73204    1.000
    N395     N        0.08957    0.20583    0.74269    1.000
    N396     N        0.07062    0.22356    0.67413    1.000
    Si397    Si       0.07553    0.13613    0.69360    1.000
    Si398    Si       0.06315    0.22612    0.71747    1.000
    N399     N        0.07632    0.03733    0.82158    1.000
    Si400    Si       0.09052    0.04391    0.86388    1.000
    Si401    Si       0.05752    0.10719    0.76522    1.000
    N402     N        0.09208    0.08419    0.76189    1.000
    Si403    Si       0.09504    0.01501    0.78981    1.000
    N404     N        0.06095    0.13578    0.79910    1.000
    Si405    Si       0.06981    0.19384    0.85464    1.000
    Si406    Si       0.10195    0.14256    0.81141    1.000
    N407     N        0.04905    0.19952    0.81713    1.000
    N408     N        0.07152    0.08312    0.87471    1.000
    N409     N        0.05660    0.02254    0.88488    1.000
    Si410    Si       0.06185    0.11811    0.96407    1.000
    Si411    Si       0.06968    0.12426    0.89077    1.000
    N412     N        0.04746    0.14611    0.99670    1.000
    N413     N        0.07478    0.22693    0.88191    1.000
    N414     N        0.04664    0.13028    0.92606    1.000
    N415     N        0.10413    0.25305    0.94540    1.000
    N416     N        0.05348    0.16378    0.88042    1.000
    N417     N        0.10103    0.13594    0.96891    1.000
    N418     N        0.04856    0.07720    0.96260    1.000
    N419     N        0.08889    0.32859    0.08950    1.000
    N420     N        0.08020    0.26488    0.04474    1.000
    Si421    Si       0.10024    0.30004    0.05743    1.000
    Si422    Si       0.07407    0.33318    0.99859    1.000
    N423     N        0.10114    0.38586    0.03940    1.000
    Si424    Si       0.09091    0.49276    0.08867    1.000
    N425     N        0.05926    0.41104    0.09453    1.000
    N426     N        0.07033    0.43604    0.02514    1.000
    Si427    Si       0.06276    0.40221    0.05216    1.000
    N428     N        0.07218    0.49718    0.04903    1.000
    Si429    Si       0.09464    0.42488    0.11540    1.000
    Si430    Si       0.04725    0.47086    0.02108    1.000
    N431     N        0.06243    0.48905    0.12058    1.000
    N432     N        0.09032    0.27566    0.12960    1.000
    N433     N        0.09194    0.35907    0.21455    1.000
    Si434    Si       0.07873    0.31677    0.12910    1.000
    N435     N        0.06147    0.26387    0.19447    1.000
    Si436    Si       0.04695    0.36013    0.22206    1.000
    N437     N        0.07819    0.43329    0.15596    1.000
    N438     N        0.05011    0.49308    0.19039    1.000
    Si439    Si       0.07569    0.47570    0.15941    1.000
    Si440    Si       0.04308    0.42189    0.18002    1.000
    N441     N        0.07357    0.37138    0.32967    1.000
    Si442    Si       0.09441    0.30246    0.28795    1.000
    N443     N        0.05222    0.31461    0.29100    1.000
    N444     N        0.09890    0.28041    0.25203    1.000
    N445     N        0.04678    0.37878    0.26282    1.000
    N446     N        0.06865    0.49924    0.32079    1.000
    Si447    Si       0.05911    0.45630    0.32844    1.000
    Si448    Si       0.05658    0.42204    0.26137    1.000
    N449     N        0.09871    0.41789    0.26602    1.000
    N450     N        0.10205    0.45090    0.32845    1.000
    Si451    Si       0.05937    0.39054    0.36619    1.000
    N452     N        0.05171    0.50620    0.25086    1.000
    N453     N        0.09770    0.26893    0.38856    1.000
    Si454    Si       0.06552    0.28013    0.41630    1.000
    N455     N        0.07171    0.32162    0.42900    1.000
    Si456    Si       0.09257    0.26109    0.48272    1.000
    N457     N        0.06693    0.41308    0.49875    1.000
    Si458    Si       0.05765    0.50145    0.44225    1.000
    N459     N        0.06558    0.39003    0.43815    1.000
    N460     N        0.10192    0.40129    0.38244    1.000
    N461     N        0.05180    0.45947    0.43649    1.000
    Si462    Si       0.07241    0.42813    0.45972    1.000
    N463     N        0.06347    0.35227    0.60245    1.000
    Si464    Si       0.08693    0.27378    0.60098    1.000
    N465     N        0.06761    0.27940    0.51284    1.000
    N466     N        0.06993    0.35120    0.53879    1.000
    Si467    Si       0.09360    0.34443    0.57264    1.000
    Si468    Si       0.07126    0.37018    0.49810    1.000
    Si469    Si       0.04847    0.31844    0.51995    1.000
    Si470    Si       0.05860    0.43873    0.53465    1.000
    N471     N        0.06660    0.47753    0.51253    1.000
    N472     N        0.09296    0.42703    0.55838    1.000
    N473     N        0.07059    0.26885    0.72544    1.000
    N474     N        0.08572    0.29915    0.63781    1.000
    Si475    Si       0.08399    0.36330    0.69864    1.000
    N476     N        0.08841    0.37472    0.74205    1.000
    Si477    Si       0.05390    0.32880    0.64020    1.000
    Si478    Si       0.10464    0.29398    0.72254    1.000
    N479     N        0.04982    0.34546    0.67893    1.000
    N480     N        0.06056    0.50533    0.64336    1.000
    N481     N        0.09258    0.46240    0.69998    1.000
    N482     N        0.09817    0.45375    0.64104    1.000
    Si483    Si       0.09680    0.49441    0.66779    1.000
    Si484    Si       0.06627    0.45701    0.73624    1.000
    Si485    Si       0.06001    0.46635    0.61990    1.000
    Si486    Si       0.07048    0.43259    0.67463    1.000
    N487     N        0.09330    0.39510    0.67318    1.000
    N488     N        0.06884    0.34024    0.81256    1.000
    Si489    Si       0.07859    0.29629    0.81928    1.000
    N490     N        0.07148    0.29365    0.86206    1.000
    Si491    Si       0.08247    0.34306    0.77038    1.000
    N492     N        0.05283    0.27036    0.79310    1.000
    N493     N        0.08347    0.44005    0.77182    1.000
    N494     N        0.08149    0.49428    0.81842    1.000
    Si495    Si       0.06638    0.48544    0.85805    1.000
    N496     N        0.05346    0.40362    0.84514    1.000
    Si497    Si       0.10441    0.47151    0.79179    1.000
    Si498    Si       0.07437    0.34685    0.93321    1.000
    N499     N        0.08189    0.30934    0.95978    1.000
    N500     N        0.07235    0.36786    0.97352    1.000
    Si501    Si       0.06431    0.26893    0.95393    1.000
    Si502    Si       0.04963    0.26117    0.88007    1.000
    N503     N        0.08151    0.39061    0.91543    1.000
    Si504    Si       0.05963    0.48553    0.94637    1.000
    N505     N        0.10266    0.49367    0.93426    1.000
    N506     N        0.05045    0.44373    0.94667    1.000
    N507     N        0.06114    0.49809    0.98829    1.000
    Si508    Si       0.08502    0.41051    0.87694    1.000
    Si509    Si       0.07475    0.40799    0.95524    1.000
    N510     N        0.08548    0.45462    0.88224    1.000
    N511     N        0.08043    0.56445    0.02886    1.000
    Si512    Si       0.08507    0.52185    0.01544    1.000
    Si513    Si       0.06742    0.61848    0.11268    1.000
    N514     N        0.05470    0.55015    0.09343    1.000
    Si515    Si       0.09178    0.55431    0.11453    1.000
    N516     N        0.10532    0.59343    0.10763    1.000
    Si517    Si       0.08813    0.67488    0.07849    1.000
    N518     N        0.06997    0.73920    0.01918    1.000
    N519     N        0.08897    0.72058    0.07945    1.000
    Si520    Si       0.06203    0.74233    0.10760    1.000
    N521     N        0.06974    0.66100    0.11590    1.000
    N522     N        0.05061    0.67368    0.05732    1.000
    N523     N        0.08145    0.54702    0.15753    1.000
    Si524    Si       0.08816    0.57959    0.21791    1.000
    Si525    Si       0.06395    0.52564    0.21363    1.000
    Si526    Si       0.08794    0.68969    0.21750    1.000
    Si527    Si       0.05807    0.68307    0.15272    1.000
    N528     N        0.09237    0.67280    0.17634    1.000
    N529     N        0.05247    0.72699    0.14805    1.000
    N530     N        0.10593    0.72692    0.22705    1.000
    N531     N        0.04633    0.56545    0.20863    1.000
    Si532    Si       0.09434    0.57967    0.29307    1.000
    N533     N        0.09563    0.60001    0.25527    1.000
    N534     N        0.07108    0.58475    0.36275    1.000
    N535     N        0.05731    0.56177    0.30027    1.000
    N536     N        0.10532    0.61584    0.31456    1.000
    Si537    Si       0.09750    0.75026    0.26275    1.000
    N538     N        0.06528    0.73254    0.28256    1.000
    N539     N        0.08324    0.66750    0.28602    1.000
    Si540    Si       0.09223    0.65735    0.32865    1.000
    Si541    Si       0.04938    0.74906    0.31963    1.000
    N542     N        0.05163    0.65372    0.34406    1.000
    Si543    Si       0.05025    0.69143    0.27204    1.000
    Si544    Si       0.05423    0.59934    0.46501    1.000
    N545     N        0.09055    0.57415    0.47640    1.000
    N546     N        0.05674    0.52985    0.40969    1.000
    N547     N        0.06147    0.60103    0.42346    1.000
    Si548    Si       0.07746    0.56576    0.40312    1.000
    Si549    Si       0.07458    0.69518    0.42540    1.000
    N550     N        0.06654    0.73267    0.40405    1.000
    Si551    Si       0.05920    0.62992    0.38813    1.000
    N552     N        0.06229    0.69844    0.46618    1.000
    Si553    Si       0.10977    0.60033    0.35428    1.000
    N554     N        0.10415    0.63666    0.37703    1.000
    N555     N        0.09758    0.50957    0.46203    1.000
    Si556    Si       0.09035    0.71541    0.49643    1.000
    N557     N        0.09092    0.53912    0.59180    1.000
    N558     N        0.05692    0.54567    0.53141    1.000
    Si559    Si       0.09419    0.54805    0.54983    1.000
    Si560    Si       0.09984    0.60525    0.50625    1.000
    N561     N        0.06041    0.62268    0.50168    1.000
    Si562    Si       0.05592    0.54161    0.61560    1.000
    N563     N        0.10134    0.62278    0.60501    1.000
    N564     N        0.08277    0.68355    0.59148    1.000
    Si565    Si       0.06456    0.64524    0.60202    1.000
    N566     N        0.05869    0.71118    0.52650    1.000
    Si567    Si       0.05524    0.70877    0.56966    1.000
    N568     N        0.08163    0.74568    0.67886    1.000
    Si569    Si       0.09105    0.72321    0.71555    1.000
    N570     N        0.06456    0.57102    0.64472    1.000
    N571     N        0.09428    0.52889    0.69728    1.000
    N572     N        0.06940    0.59783    0.69748    1.000
    Si573    Si       0.06204    0.55592    0.68684    1.000
    Si574    Si       0.08295    0.61173    0.65603    1.000
    Si575    Si       0.07596    0.60463    0.74011    1.000
    N576     N        0.05267    0.63946    0.64454    1.000
    N577     N        0.06024    0.69205    0.71821    1.000
    N578     N        0.10086    0.75206    0.74744    1.000
    Si579    Si       0.09074    0.53650    0.83261    1.000
    N580     N        0.05669    0.56153    0.82121    1.000
    N581     N        0.08474    0.56217    0.75389    1.000
    N582     N        0.09908    0.69655    0.78665    1.000
    Si583    Si       0.05926    0.69961    0.80125    1.000
    N584     N        0.05261    0.71534    0.84124    1.000
    Si585    Si       0.04776    0.56411    0.77940    1.000
    N586     N        0.07768    0.52555    0.87224    1.000
    Si587    Si       0.09858    0.60522    0.94683    1.000
    N588     N        0.09175    0.56275    0.93636    1.000
    Si589    Si       0.06144    0.54612    0.90637    1.000
    N590     N        0.06240    0.62724    0.94809    1.000
    Si591    Si       0.04686    0.66517    0.93886    1.000
    N592     N        0.05716    0.67303    0.90006    1.000
    N593     N        0.06300    0.69269    0.96887    1.000
    N594     N        0.06790    0.74693    0.92290    1.000
    N595     N        0.07607    0.85958    0.01668    1.000
    N596     N        0.06786    0.85619    0.08104    1.000
    Si597    Si       0.09612    0.87000    0.05304    1.000
    Si598    Si       0.05692    0.82019    0.00761    1.000
    Si599    Si       0.05758    0.81410    0.08591    1.000
    N600     N        0.07385    0.78479    0.11147    1.000
    Si601    Si       0.10500    0.76214    0.00922    1.000
    Si602    Si       0.07769    0.94220    0.02798    1.000
    N603     N        0.09321    0.91238    0.05475    1.000
    Si604    Si       0.09868    0.92739    0.09689    1.000
    N605     N        0.05456    0.92642    0.10504    1.000
    N606     N        0.05003    0.92147    0.00178    1.000
    N607     N        0.10576    0.96754    0.00821    1.000
    N608     N        0.05185    0.96775    0.05196    1.000
    Si609    Si       0.09302    0.86727    0.14787    1.000
    N610     N        0.04978    0.86637    0.14328    1.000
    Si611    Si       0.07703    0.79640    0.20321    1.000
    Si612    Si       0.10022    0.86755    0.21836    1.000
    N613     N        0.06714    0.84026    0.20238    1.000
    N614     N        0.09337    0.99987    0.13893    1.000
    Si615    Si       0.08502    0.98767    0.17870    1.000
    N616     N        0.10628    0.88846    0.18214    1.000
    N617     N        0.04809    0.80112    0.04470    1.000
    N618     N        0.08231    0.89781    0.24324    1.000
    N619     N        0.07629    0.83248    0.29212    1.000
    Si620    Si       0.07863    0.85383    0.32728    1.000
    N621     N        0.08180    0.78958    0.24671    1.000
    N622     N        0.08672    0.75847    0.34086    1.000
    Si623    Si       0.04885    0.80561    0.27395    1.000
    N624     N        0.06831    0.93936    0.30186    1.000
    Si625    Si       0.09621    0.91682    0.27903    1.000
    Si626    Si       0.07032    0.91613    0.33929    1.000
    Si627    Si       0.09670    0.93820    0.41136    1.000
    N628     N        0.10368    0.89218    0.31625    1.000
    Si629    Si       0.04842    0.97837    0.38130    1.000
    Si630    Si       0.05447    0.81885    0.42991    1.000
    N631     N        0.07177    0.85469    0.44860    1.000
    Si632    Si       0.07453    0.76809    0.38170    1.000
    N633     N        0.08693    0.80269    0.40337    1.000
    N634     N        0.09942    0.75692    0.49041    1.000
    N635     N        0.07325    0.94254    0.37493    1.000
    Si636    Si       0.05292    0.89357    0.45680    1.000
    N637     N        0.06840    0.93098    0.44349    1.000
    N638     N        0.07477    0.99298    0.47090    1.000
    Si639    Si       0.08009    0.85216    0.59379    1.000
    Si640    Si       0.08191    0.87013    0.52357    1.000
    Si641    Si       0.06337    0.78499    0.57409    1.000
    N642     N        0.09123    0.82882    0.50640    1.000
    N643     N        0.06016    0.81551    0.60658    1.000
    N644     N        0.05733    0.86427    0.55885    1.000
    Si645    Si       0.07230    0.78950    0.50077    1.000
    Si646    Si       0.10512    0.93459    0.55133    1.000
    N647     N        0.09163    0.00020    0.59588    1.000
    N648     N        0.06697    0.95312    0.54121    1.000
    Si649    Si       0.05882    0.98447    0.56976    1.000
    N650     N        0.05833    0.90084    0.49937    1.000
    Si651    Si       0.04684    0.00459    0.49896    1.000
    N652     N        0.04708    0.97472    0.69844    1.000
    N653     N        0.07186    0.81206    0.68008    1.000
    N654     N        0.06895    0.88120    0.62424    1.000
    Si655    Si       0.04731    0.93396    0.68345    1.000
    Si656    Si       0.10017    0.90956    0.63230    1.000
    N657     N        0.08809    0.93921    0.74018    1.000
    Si658    Si       0.08319    0.98168    0.72454    1.000
    N659     N        0.08653    0.93248    0.66651    1.000
    N660     N        0.10746    0.78498    0.56851    1.000
    Si661    Si       0.10534    0.78171    0.67715    1.000
    N662     N        0.06500    0.78626    0.85221    1.000
    Si663    Si       0.08091    0.85597    0.77136    1.000
    N664     N        0.07137    0.81950    0.74963    1.000
    Si665    Si       0.10137    0.79451    0.77200    1.000
    N666     N        0.10209    0.83067    0.80099    1.000
    N667     N        0.04884    0.88666    0.77760    1.000
    N668     N        0.08413    0.91372    0.84005    1.000
    Si669    Si       0.08600    0.95894    0.84284    1.000
    Si670    Si       0.04760    0.92218    0.75103    1.000
    N671     N        0.06938    0.00697    0.75667    1.000
    N672     N        0.09035    0.80009    0.98948    1.000
    N673     N        0.08388    0.85519    0.87467    1.000
    Si674    Si       0.05830    0.82100    0.87752    1.000
    N675     N        0.06038    0.82179    0.92183    1.000
    Si676    Si       0.09016    0.86100    0.91801    1.000
    Si677    Si       0.10297    0.00639    0.98992    1.000
    N678     N        0.06333    0.88298    0.94502    1.000
    Si679    Si       0.07494    0.88993    0.98538    1.000
    Si680    Si       0.07592    0.99059    0.91262    1.000
    N681     N        0.10398    0.00162    0.94556    1.000
    N682     N        0.09753    0.96528    0.88517    1.000
    N683     N        0.15189    0.02490    0.09883    1.000
    Si684    Si       0.12416    0.12260    0.10151    1.000
    Si685    Si       0.13077    0.12274    0.03725    1.000
    Si686    Si       0.15176    0.06202    0.01436    1.000
    N687     N        0.15471    0.11988    0.07249    1.000
    N688     N        0.11833    0.08291    0.02558    1.000
    N689     N        0.14127    0.02177    0.00305    1.000
    N690     N        0.14218    0.20305    0.04689    1.000
    Si691    Si       0.14523    0.19204    0.08844    1.000
    N692     N        0.11781    0.22265    0.10350    1.000
    N693     N        0.12668    0.16253    0.11323    1.000
    Si694    Si       0.11188    0.23383    0.03373    1.000
    N695     N        0.15578    0.14082    0.00944    1.000
    Si696    Si       0.15828    0.05866    0.12569    1.000
    Si697    Si       0.14563    0.09178    0.17433    1.000
    N698     N        0.13022    0.09214    0.13161    1.000
    N699     N        0.16011    0.05107    0.16866    1.000
    N700     N        0.11977    0.16326    0.19531    1.000
    Si701    Si       0.16496    0.16589    0.19265    1.000
    N702     N        0.12991    0.24230    0.20672    1.000
    Si703    Si       0.16659    0.18379    0.01533    1.000
    N704     N        0.14187    0.11939    0.35243    1.000
    Si705    Si       0.11777    0.02050    0.35111    1.000
    N706     N        0.14620    0.22347    0.42200    1.000
    N707     N        0.13291    0.17793    0.29325    1.000
    N708     N        0.13193    0.21196    0.35787    1.000
    Si709    Si       0.15459    0.20509    0.32251    1.000
    Si710    Si       0.13807    0.16367    0.36464    1.000
    Si711    Si       0.11381    0.22960    0.39248    1.000
    N712     N        0.14125    0.04417    0.37740    1.000
    N713     N        0.13754    0.10377    0.42537    1.000
    Si714    Si       0.12559    0.12032    0.46302    1.000
    Si715    Si       0.11868    0.07121    0.40407    1.000
    Si716    Si       0.10698    0.00904    0.44713    1.000
    N717     N        0.12926    0.16325    0.46230    1.000
    Si718    Si       0.15620    0.18515    0.43719    1.000
    N719     N        0.15007    0.10509    0.49543    1.000
    N720     N        0.11373    0.22428    0.49683    1.000
    N721     N        0.12408    0.06281    0.58907    1.000
    Si722    Si       0.13182    0.10502    0.60229    1.000
    N723     N        0.15174    0.12285    0.56676    1.000
    Si724    Si       0.15668    0.23165    0.71577    1.000
    Si725    Si       0.10868    0.21879    0.65316    1.000
    Si726    Si       0.16079    0.04374    0.57728    1.000
    N727     N        0.16157    0.18655    0.52884    1.000
    N728     N        0.12112    0.18591    0.57836    1.000
    Si729    Si       0.14993    0.22649    0.52007    1.000
    Si730    Si       0.13475    0.15825    0.54852    1.000
    Si731    Si       0.14285    0.22158    0.59127    1.000
    N732     N        0.14285    0.24812    0.55755    1.000
    N733     N        0.11574    0.15247    0.70453    1.000
    N734     N        0.11359    0.24143    0.61847    1.000
    Si735    Si       0.13611    0.02186    0.68518    1.000
    Si736    Si       0.11600    0.07786    0.66900    1.000
    N737     N        0.12961    0.06177    0.70766    1.000
    N738     N        0.14504    0.09850    0.64476    1.000
    N739     N        0.10993    0.03840    0.65311    1.000
    N740     N        0.14319    0.21148    0.68171    1.000
    Si741    Si       0.12061    0.17688    0.74214    1.000
    N742     N        0.15815    0.19988    0.74471    1.000
    N743     N        0.11437    0.17643    0.64161    1.000
    Si744    Si       0.14231    0.16898    0.67445    1.000
    N745     N        0.13507    0.02939    0.77512    1.000
    N746     N        0.13035    0.11088    0.82753    1.000
    Si747    Si       0.15564    0.12198    0.79090    1.000
    Si748    Si       0.14710    0.12061    0.86854    1.000
    Si749    Si       0.12854    0.06659    0.75214    1.000
    N750     N        0.10626    0.17411    0.84231    1.000
    N751     N        0.12594    0.14851    0.77454    1.000
    Si752    Si       0.14666    0.18676    0.85097    1.000
    N753     N        0.15840    0.20984    0.81415    1.000
    N754     N        0.12608    0.03024    0.88523    1.000
    N755     N        0.11386    0.13024    0.89631    1.000
    N756     N        0.16510    0.20422    0.97764    1.000
    Si757    Si       0.11142    0.22918    0.90726    1.000
    Si758    Si       0.12433    0.22217    0.97165    1.000
    Si759    Si       0.12422    0.15128    0.93316    1.000
    N760     N        0.11354    0.19283    0.93752    1.000
    N761     N        0.14635    0.21715    0.88186    1.000
    N762     N        0.16578    0.08929    0.76506    1.000
    Si763    Si       0.15275    0.25289    0.81959    1.000
    Si764    Si       0.13549    0.35706    0.03542    1.000
    N765     N        0.15221    0.35136    0.07374    1.000
    N766     N        0.13689    0.27945    0.07247    1.000
    Si767    Si       0.12014    0.35806    0.10426    1.000
    N768     N        0.11219    0.32267    0.02137    1.000
    Si769    Si       0.14097    0.29611    0.00178    1.000
    N770     N        0.16059    0.37625    0.00487    1.000
    Si771    Si       0.12744    0.26327    0.11287    1.000
    N772     N        0.13055    0.25568    0.00267    1.000
    N773     N        0.14784    0.43682    0.03197    1.000
    N774     N        0.11497    0.45612    0.09119    1.000
    Si775    Si       0.15541    0.45611    0.07217    1.000
    Si776    Si       0.11079    0.42092    0.01555    1.000
    N777     N        0.12639    0.39575    0.12113    1.000
    N778     N        0.14399    0.31367    0.20183    1.000
    Si779    Si       0.13451    0.28050    0.22745    1.000
    Si780    Si       0.12334    0.34774    0.18622    1.000
    N781     N        0.15861    0.26694    0.14127    1.000
    N782     N        0.14771    0.37466    0.24405    1.000
    N783     N        0.15462    0.37678    0.17996    1.000
    N784     N        0.11327    0.33930    0.14443    1.000
    Si785    Si       0.15108    0.46601    0.18372    1.000
    N786     N        0.14108    0.44162    0.21742    1.000
    N787     N        0.11684    0.48888    0.16950    1.000
    Si788    Si       0.16463    0.39604    0.14298    1.000
    Si789    Si       0.16388    0.40318    0.21171    1.000
    N790     N        0.12029    0.28379    0.31886    1.000
    Si791    Si       0.12502    0.28856    0.36114    1.000
    Si792    Si       0.11483    0.35658    0.32907    1.000
    N793     N        0.13445    0.33039    0.36149    1.000
    N794     N        0.11062    0.34296    0.28739    1.000
    N795     N        0.16023    0.29736    0.26183    1.000
    Si796    Si       0.16113    0.28026    0.30189    1.000
    Si797    Si       0.10634    0.37444    0.25504    1.000
    N798     N        0.12268    0.48645    0.27390    1.000
    N799     N        0.13953    0.39260    0.32595    1.000
    Si800    Si       0.13418    0.44787    0.26016    1.000
    Si801    Si       0.12348    0.42305    0.35200    1.000
    Si802    Si       0.11406    0.49277    0.31589    1.000
    N803     N        0.11396    0.43033    0.44616    1.000
    Si804    Si       0.16059    0.28875    0.48683    1.000
    N805     N        0.12262    0.28923    0.46731    1.000
    N806     N        0.13071    0.35439    0.42784    1.000
    Si807    Si       0.15727    0.34764    0.39388    1.000
    N808     N        0.11095    0.35193    0.48985    1.000
    Si809    Si       0.11043    0.32752    0.45440    1.000
    N810     N        0.16376    0.27068    0.37629    1.000
    N811     N        0.15636    0.44690    0.36910    1.000
    N812     N        0.14807    0.47392    0.48856    1.000
    Si813    Si       0.14779    0.45709    0.44709    1.000
    Si814    Si       0.10897    0.39264    0.42380    1.000
    Si815    Si       0.14542    0.29117    0.56264    1.000
    Si816    Si       0.14269    0.35115    0.52130    1.000
    N817     N        0.12974    0.36338    0.56189    1.000
    N818     N        0.15545    0.30955    0.52604    1.000
    Si819    Si       0.15571    0.37004    0.59571    1.000
    N820     N        0.10702    0.30222    0.57546    1.000
    N821     N        0.13693    0.47162    0.58049    1.000
    Si822    Si       0.13558    0.43029    0.56889    1.000
    N823     N        0.14447    0.41437    0.61149    1.000
    Si824    Si       0.10992    0.49185    0.49957    1.000
    Si825    Si       0.15185    0.50706    0.56179    1.000
    N826     N        0.16274    0.30164    0.66053    1.000
    N827     N        0.13733    0.26869    0.71802    1.000
    N828     N        0.13343    0.35594    0.63178    1.000
    Si829    Si       0.12127    0.31851    0.65436    1.000
    N830     N        0.10847    0.32818    0.69394    1.000
    N831     N        0.15999    0.39305    0.68237    1.000
    Si832    Si       0.13840    0.46216    0.62348    1.000
    Si833    Si       0.12949    0.46661    0.72498    1.000
    N834     N        0.14155    0.42770    0.73917    1.000
    Si835    Si       0.12959    0.39671    0.64869    1.000
    N836     N        0.15966    0.48320    0.70186    1.000
    N837     N        0.13071    0.50625    0.64143    1.000
    Si838    Si       0.15825    0.30486    0.76677    1.000
    N839     N        0.11940    0.28124    0.82569    1.000
    N840     N        0.11331    0.31344    0.76204    1.000
    N841     N        0.15255    0.33315    0.86684    1.000
    Si842    Si       0.11606    0.30557    0.86969    1.000
    N843     N        0.10583    0.33272    0.90753    1.000
    N844     N        0.12761    0.38740    0.79425    1.000
    N845     N        0.13708    0.45471    0.81702    1.000
    Si846    Si       0.14157    0.41274    0.82828    1.000
    N847     N        0.11629    0.49463    0.75581    1.000
    N848     N        0.12325    0.39613    0.86417    1.000
    Si849    Si       0.16067    0.48722    0.83537    1.000
    Si850    Si       0.11044    0.40725    0.76077    1.000
    N851     N        0.12838    0.27419    0.89692    1.000
    Si852    Si       0.13597    0.36481    0.89189    1.000
    Si853    Si       0.11827    0.29683    0.93448    1.000
    N854     N        0.15446    0.30889    0.96091    1.000
    N855     N        0.15366    0.37478    0.93279    1.000
    Si856    Si       0.14822    0.41545    0.94586    1.000
    N857     N        0.11354    0.41947    0.97159    1.000
    N858     N        0.14918    0.44573    0.91370    1.000
    Si859    Si       0.11988    0.47564    0.89967    1.000
    N860     N        0.14490    0.50141    0.87416    1.000
    N861     N        0.14336    0.59571    0.04425    1.000
    Si862    Si       0.14426    0.59961    0.08916    1.000
    N863     N        0.11756    0.52308    0.10082    1.000
    Si864    Si       0.12006    0.57330    0.01482    1.000
    Si865    Si       0.15940    0.52082    0.09973    1.000
    Si866    Si       0.13579    0.63522    0.01586    1.000
    N867     N        0.15029    0.70667    0.09860    1.000
    N868     N        0.12260    0.65810    0.05603    1.000
    Si869    Si       0.12719    0.74117    0.08044    1.000
    Si870    Si       0.16125    0.67156    0.07510    1.000
    Si871    Si       0.11657    0.53173    0.17877    1.000
    N872     N        0.15378    0.55220    0.16816    1.000
    Si873    Si       0.15287    0.59183    0.18150    1.000
    N874     N        0.11208    0.60246    0.19123    1.000
    Si875    Si       0.16035    0.73435    0.13230    1.000
    Si876    Si       0.12176    0.64472    0.18798    1.000
    N877     N        0.11919    0.66106    0.22958    1.000
    N878     N        0.15344    0.71797    0.17255    1.000
    Si879    Si       0.12852    0.74662    0.19537    1.000
    N880     N        0.15784    0.63120    0.16428    1.000
    N881     N        0.10495    0.53800    0.22117    1.000
    N882     N        0.12469    0.54851    0.29786    1.000
    N883     N        0.14687    0.58142    0.36097    1.000
    Si884    Si       0.12930    0.52797    0.25944    1.000
    Si885    Si       0.15327    0.54629    0.33049    1.000
    N886     N        0.11676    0.69009    0.41957    1.000
    Si887    Si       0.15866    0.69907    0.31390    1.000
    Si888    Si       0.11115    0.63876    0.26799    1.000
    N889     N        0.12631    0.68498    0.33935    1.000
    N890     N        0.15085    0.65218    0.27960    1.000
    N891     N        0.16046    0.71671    0.27172    1.000
    Si892    Si       0.15486    0.68308    0.24699    1.000
    Si893    Si       0.11735    0.54776    0.45644    1.000
    N894     N        0.11819    0.55755    0.41454    1.000
    Si895    Si       0.15784    0.57188    0.40288    1.000
    N896     N        0.15919    0.55290    0.46415    1.000
    N897     N        0.13653    0.62077    0.49009    1.000
    N898     N        0.15568    0.73851    0.45373    1.000
    N899     N        0.12556    0.68968    0.49054    1.000
    Si900    Si       0.14323    0.69795    0.45139    1.000
    Si901    Si       0.13113    0.67133    0.38084    1.000
    N902     N        0.14201    0.50682    0.34581    1.000
    Si903    Si       0.12499    0.61640    0.57104    1.000
    N904     N        0.11925    0.51515    0.53365    1.000
    N905     N        0.15545    0.54044    0.58559    1.000
    Si906    Si       0.12547    0.54099    0.61817    1.000
    N907     N        0.10933    0.58758    0.54385    1.000
    N908     N        0.16488    0.61015    0.59035    1.000
    Si909    Si       0.14874    0.65774    0.50889    1.000
    N910     N        0.13620    0.72136    0.56414    1.000
    N911     N        0.13162    0.65308    0.54931    1.000
    Si912    Si       0.12517    0.68307    0.58121    1.000
    N913     N        0.14840    0.67067    0.61674    1.000
    N914     N        0.13813    0.57519    0.63932    1.000
    Si915    Si       0.14589    0.62567    0.63163    1.000
    Si916    Si       0.11243    0.53405    0.73660    1.000
    N917     N        0.10781    0.63478    0.73861    1.000
    N918     N        0.12503    0.69627    0.71232    1.000
    N919     N        0.12073    0.63159    0.66820    1.000
    Si920    Si       0.12880    0.65267    0.70382    1.000
    N921     N        0.12976    0.54596    0.81855    1.000
    Si922    Si       0.16292    0.54683    0.78952    1.000
    Si923    Si       0.15799    0.56751    0.84513    1.000
    N924     N        0.14293    0.60256    0.86574    1.000
    N925     N        0.15280    0.54915    0.74774    1.000
    N926     N        0.11571    0.63205    0.80710    1.000
    Si927    Si       0.13950    0.63922    0.84042    1.000
    Si928    Si       0.11828    0.65932    0.77360    1.000
    Si929    Si       0.12718    0.73154    0.78347    1.000
    Si930    Si       0.14403    0.70949    0.85895    1.000
    N931     N        0.15399    0.71349    0.81786    1.000
    N932     N        0.16050    0.67254    0.76871    1.000
    N933     N        0.12127    0.67196    0.86420    1.000
    N934     N        0.16047    0.73573    0.75573    1.000
    Si935    Si       0.11703    0.53172    0.95212    1.000
    N936     N        0.15677    0.53314    0.93800    1.000
    N937     N        0.11563    0.60823    0.98848    1.000
    Si938    Si       0.15946    0.61512    0.90626    1.000
    N939     N        0.12028    0.53538    0.99368    1.000
    N940     N        0.11835    0.74189    0.87462    1.000
    N941     N        0.12337    0.63155    0.92223    1.000
    N942     N        0.11820    0.74008    0.97534    1.000
    N943     N        0.13491    0.67703    0.99516    1.000
    Si944    Si       0.10569    0.69709    0.97084    1.000
    Si945    Si       0.10951    0.74147    0.91920    1.000
    N946     N        0.11737    0.69835    0.92864    1.000
    Si947    Si       0.10121    0.66714    0.90124    1.000
    Si948    Si       0.15659    0.75573    0.96364    1.000
    N949     N        0.13718    0.85981    0.06543    1.000
    Si950    Si       0.14201    0.86328    0.10974    1.000
    N951     N        0.13309    0.76152    0.04364    1.000
    N952     N        0.13503    0.76417    0.11737    1.000
    N953     N        0.12647    0.95834    0.09143    1.000
    Si954    Si       0.13937    0.93801    0.00469    1.000
    Si955    Si       0.11672    0.00022    0.09969    1.000
    N956     N        0.16160    0.92237    0.03950    1.000
    N957     N        0.11322    0.89439    0.11871    1.000
    N958     N        0.16678    0.00042    0.22309    1.000
    N959     N        0.11929    0.83563    0.13551    1.000
    N960     N        0.12645    0.83448    0.23079    1.000
    N961     N        0.15960    0.76987    0.22126    1.000
    Si962    Si       0.16072    0.81266    0.21114    1.000
    N963     N        0.11131    0.96081    0.20158    1.000
    N964     N        0.16163    0.93305    0.16963    1.000
    Si965    Si       0.12959    0.92147    0.19508    1.000
    N966     N        0.15007    0.89608    0.22834    1.000
    Si967    Si       0.12475    0.99647    0.22472    1.000
    N968     N        0.10358    0.77747    0.17759    1.000
    Si969    Si       0.10909    0.79282    0.13662    1.000
    N970     N        0.14290    0.84412    0.28913    1.000
    N971     N        0.12811    0.77363    0.28605    1.000
    Si972    Si       0.13829    0.86906    0.32499    1.000
    Si973    Si       0.12884    0.76308    0.32986    1.000
    Si974    Si       0.11358    0.81553    0.27072    1.000
    N975     N        0.11374    0.84224    0.35076    1.000
    N976     N        0.14288    0.78512    0.36477    1.000
    Si977    Si       0.15342    0.96762    0.45492    1.000
    Si978    Si       0.13655    0.97824    0.29111    1.000
    N979     N        0.13203    0.93897    0.27371    1.000
    N980     N        0.13889    0.98719    0.33371    1.000
    N981     N        0.11613    0.00652    0.26696    1.000
    Si982    Si       0.12402    0.81801    0.38401    1.000
    N983     N        0.13793    0.81100    0.46117    1.000
    N984     N        0.15126    0.84533    0.40519    1.000
    N985     N        0.13694    0.87324    0.46709    1.000
    Si986    Si       0.13947    0.77103    0.47847    1.000
    Si987    Si       0.16268    0.84439    0.44682    1.000
    N988     N        0.15343    0.94484    0.49022    1.000
    N989     N        0.12181    0.90464    0.40085    1.000
    N990     N        0.12242    0.96990    0.42612    1.000
    Si991    Si       0.15752    0.88702    0.39353    1.000
    Si992    Si       0.16139    0.86189    0.25348    1.000
    Si993    Si       0.10778    0.84149    0.46898    1.000
    N994     N        0.14432    0.00898    0.46984    1.000
    N995     N        0.12409    0.84752    0.59578    1.000
    Si996    Si       0.13159    0.80546    0.59975    1.000
    Si997    Si       0.15701    0.87208    0.61512    1.000
    Si998    Si       0.14381    0.76257    0.55614    1.000
    N999     N        0.15913    0.77397    0.51691    1.000
    N1000    N        0.14495    0.92302    0.70453    1.000
    N1001    N        0.13571    0.96615    0.55258    1.000
    Si1002   Si       0.12789    0.97446    0.59637    1.000
    N1003    N        0.11671    0.89847    0.53013    1.000
    Si1004   Si       0.14647    0.90261    0.49672    1.000
    N1005    N        0.16022    0.00804    0.59982    1.000
    N1006    N        0.16495    0.85023    0.69816    1.000
    N1007    N        0.12729    0.78760    0.63779    1.000
    N1008    N        0.14464    0.77061    0.69481    1.000
    Si1009   Si       0.14624    0.84834    0.73828    1.000
    Si1010   Si       0.16090    0.77501    0.73335    1.000
    Si1011   Si       0.16467    0.76980    0.65317    1.000
    Si1012   Si       0.12658    0.95161    0.67646    1.000
    N1013    N        0.11823    0.98684    0.70106    1.000
    N1014    N        0.14191    0.96518    0.63877    1.000
    Si1015   Si       0.16102    0.89165    0.67950    1.000
    N1016    N        0.13740    0.89567    0.64435    1.000
    N1017    N        0.10596    0.93269    0.59594    1.000
    N1018    N        0.14109    0.87190    0.83690    1.000
    N1019    N        0.13070    0.80577    0.86014    1.000
    Si1020   Si       0.13895    0.82986    0.82539    1.000
    N1021    N        0.13607    0.80793    0.74845    1.000
    N1022    N        0.11345    0.76618    0.80682    1.000
    N1023    N        0.11069    0.87529    0.74684    1.000
    Si1024   Si       0.10435    0.77260    0.84805    1.000
    Si1025   Si       0.10837    0.88540    0.85933    1.000
    N1026    N        0.15019    0.93940    0.84413    1.000
    Si1027   Si       0.14570    0.95759    0.80589    1.000
    N1028    N        0.15070    0.92671    0.77623    1.000
    N1029    N        0.10651    0.97652    0.81037    1.000
    Si1030   Si       0.12457    0.91665    0.74170    1.000
    Si1031   Si       0.14132    0.87799    0.97153    1.000
    N1032    N        0.15570    0.79436    0.98379    1.000
    Si1033   Si       0.15632    0.79899    0.89436    1.000
    Si1034   Si       0.11968    0.80843    0.95837    1.000
    N1035    N        0.13295    0.77977    0.92753    1.000
    N1036    N        0.12202    0.84879    0.94346    1.000
    Si1037   Si       0.16256    0.87735    0.90849    1.000
    Si1038   Si       0.13796    0.00425    0.91721    1.000
    N1039    N        0.11469    0.90735    0.98714    1.000
    N1040    N        0.12272    0.90078    0.89771    1.000
    N1041    N        0.15856    0.96611    0.91515    1.000
    Si1042   Si       0.13590    0.94305    0.88687    1.000
    Si1043   Si       0.19206    0.09723    0.07245    1.000
    N1044    N        0.19532    0.07852    0.11199    1.000
    Si1045   Si       0.18467    0.02461    0.06995    1.000
    N1046    N        0.17963    0.06260    0.04823    1.000
    N1047    N        0.20563    0.18143    0.03201    1.000
    N1048    N        0.18546    0.19789    0.09918    1.000
    Si1049   Si       0.21204    0.20819    0.06683    1.000
    N1050    N        0.20693    0.24810    0.05039    1.000
    Si1051   Si       0.16493    0.24383    0.17909    1.000
    N1052    N        0.20688    0.05795    0.21162    1.000
    N1053    N        0.17540    0.11960    0.18643    1.000
    Si1054   Si       0.18576    0.02512    0.19305    1.000
    Si1055   Si       0.20893    0.09958    0.19992    1.000
    Si1056   Si       0.21961    0.18525    0.24059    1.000
    N1057    N        0.17351    0.20240    0.17121    1.000
    N1058    N        0.17706    0.17277    0.23323    1.000
    Si1059   Si       0.20170    0.20882    0.13824    1.000
    N1060    N        0.22349    0.24699    0.13206    1.000
    N1061    N        0.22378    0.02215    0.08794    1.000
    N1062    N        0.22507    0.11731    0.23912    1.000
    N1063    N        0.19432    0.07905    0.33640    1.000
    N1064    N        0.17811    0.12553    0.28989    1.000
    Si1065   Si       0.18229    0.12356    0.33550    1.000
    N1066    N        0.19901    0.02042    0.35160    1.000
    Si1067   Si       0.21687    0.10714    0.28075    1.000
    Si1068   Si       0.18088    0.05472    0.36940    1.000
    N1069    N        0.17555    0.16898    0.34074    1.000
    N1070    N        0.20904    0.18417    0.28530    1.000
    Si1071   Si       0.21127    0.22799    0.28694    1.000
    N1072    N        0.17157    0.23808    0.30271    1.000
    Si1073   Si       0.16948    0.16435    0.27462    1.000
    N1074    N        0.20839    0.12603    0.37347    1.000
    N1075    N        0.19657    0.07203    0.40677    1.000
    N1076    N        0.19418    0.05790    0.47297    1.000
    Si1077   Si       0.19068    0.09834    0.48193    1.000
    N1078    N        0.19786    0.12366    0.44782    1.000
    Si1079   Si       0.17960    0.11435    0.40984    1.000
    Si1080   Si       0.21788    0.05450    0.43813    1.000
    N1081    N        0.16407    0.16214    0.40225    1.000
    Si1082   Si       0.20791    0.23028    0.47375    1.000
    Si1083   Si       0.22679    0.04812    0.32343    1.000
    Si1084   Si       0.20763    0.17106    0.37980    1.000
    Si1085   Si       0.18156    0.24213    0.40280    1.000
    N1086    N        0.20804    0.21624    0.38018    1.000
    Si1087   Si       0.22215    0.15888    0.45239    1.000
    N1088    N        0.19662    0.19257    0.45700    1.000
    N1089    N        0.22130    0.22908    0.24513    1.000
    N1090    N        0.21167    0.10606    0.52056    1.000
    N1091    N        0.19582    0.07208    0.58175    1.000
    Si1092   Si       0.17780    0.09311    0.54476    1.000
    Si1093   Si       0.17128    0.03141    0.49714    1.000
    N1094    N        0.18035    0.21944    0.61020    1.000
    N1095    N        0.17742    0.25029    0.49645    1.000
    Si1096   Si       0.20729    0.01506    0.69745    1.000
    Si1097   Si       0.18353    0.10840    0.66147    1.000
    Si1098   Si       0.19586    0.07552    0.73897    1.000
    N1099    N        0.19851    0.09193    0.69704    1.000
    N1100    N        0.19205    0.03194    0.73392    1.000
    N1101    N        0.21530    0.11277    0.63314    1.000
    N1102    N        0.17606    0.01410    0.66755    1.000
    N1103    N        0.19451    0.25068    0.70348    1.000
    N1104    N        0.18137    0.15353    0.66671    1.000
    Si1105   Si       0.21829    0.15609    0.64257    1.000
    Si1106   Si       0.22278    0.21906    0.60054    1.000
    N1107    N        0.16208    0.04916    0.53559    1.000
    Si1108   Si       0.17678    0.02120    0.77284    1.000
    N1109    N        0.21439    0.03734    0.79507    1.000
    N1110    N        0.19200    0.01890    0.86422    1.000
    N1111    N        0.16746    0.13913    0.93826    1.000
    N1112    N        0.21667    0.21171    0.77521    1.000
    N1113    N        0.18723    0.15114    0.79379    1.000
    Si1114   Si       0.17893    0.19063    0.78090    1.000
    Si1115   Si       0.20932    0.15467    0.83233    1.000
    N1116    N        0.17499    0.15588    0.85993    1.000
    Si1117   Si       0.21791    0.25285    0.78837    1.000
    N1118    N        0.17487    0.08843    0.87887    1.000
    Si1119   Si       0.19533    0.04890    0.95980    1.000
    Si1120   Si       0.17652    0.12060    0.97772    1.000
    N1121    N        0.17378    0.07813    0.98220    1.000
    N1122    N        0.20861    0.01543    0.98593    1.000
    N1123    N        0.17150    0.03264    0.92715    1.000
    N1124    N        0.21978    0.12744    0.97108    1.000
    Si1125   Si       0.21755    0.09698    0.87539    1.000
    Si1126   Si       0.16657    0.04642    0.88469    1.000
    N1127    N        0.21335    0.25640    0.97892    1.000
    Si1128   Si       0.20980    0.14913    0.93625    1.000
    N1129    N        0.22081    0.19004    0.93751    1.000
    Si1130   Si       0.19688    0.22146    0.95620    1.000
    N1131    N        0.18255    0.25225    0.92769    1.000
    Si1132   Si       0.20850    0.00733    0.82562    1.000
    N1133    N        0.19710    0.30069    0.09195    1.000
    Si1134   Si       0.19316    0.34527    0.08742    1.000
    Si1135   Si       0.17853    0.28087    0.05772    1.000
    N1136    N        0.18075    0.30732    0.02216    1.000
    Si1137   Si       0.21663    0.33178    0.01583    1.000
    N1138    N        0.21900    0.35565    0.05258    1.000
    N1139    N        0.19702    0.37509    0.12074    1.000
    N1140    N        0.16999    0.49726    0.06561    1.000
    N1141    N        0.19370    0.44199    0.09398    1.000
    Si1142   Si       0.18019    0.41523    0.01098    1.000
    N1143    N        0.21543    0.43583    0.02762    1.000
    Si1144   Si       0.21330    0.50284    0.06609    1.000
    N1145    N        0.19542    0.26762    0.19648    1.000
    Si1146   Si       0.18749    0.31039    0.19254    1.000
    N1147    N        0.20245    0.33419    0.22618    1.000
    Si1148   Si       0.20005    0.28375    0.13109    1.000
    N1149    N        0.20781    0.31808    0.15558    1.000
    N1150    N        0.20674    0.41638    0.21589    1.000
    Si1151   Si       0.19925    0.45796    0.13366    1.000
    N1152    N        0.17979    0.49739    0.13060    1.000
    N1153    N        0.17996    0.49686    0.19711    1.000
    N1154    N        0.17172    0.43601    0.15756    1.000
    N1155    N        0.19224    0.30082    0.32487    1.000
    N1156    N        0.18903    0.35796    0.29008    1.000
    Si1157   Si       0.17031    0.34030    0.25495    1.000
    Si1158   Si       0.19868    0.29406    0.36778    1.000
    Si1159   Si       0.21705    0.32976    0.30636    1.000
    N1160    N        0.20288    0.40970    0.32906    1.000
    Si1161   Si       0.17278    0.39619    0.30075    1.000
    N1162    N        0.17122    0.43070    0.27314    1.000
    Si1163   Si       0.21052    0.43583    0.25563    1.000
    N1164    N        0.20660    0.49122    0.36504    1.000
    N1165    N        0.19142    0.32106    0.40010    1.000
    N1166    N        0.18945    0.31367    0.46606    1.000
    Si1167   Si       0.21140    0.35032    0.48237    1.000
    Si1168   Si       0.21238    0.29887    0.43222    1.000
    N1169    N        0.22357    0.37379    0.44779    1.000
    Si1170   Si       0.19172    0.42117    0.36791    1.000
    N1171    N        0.17929    0.42752    0.44918    1.000
    Si1172   Si       0.19916    0.40048    0.42442    1.000
    N1173    N        0.17551    0.38589    0.39032    1.000
    N1174    N        0.22570    0.42199    0.39635    1.000
    N1175    N        0.16141    0.49037    0.42269    1.000
    Si1176   Si       0.16478    0.48689    0.37917    1.000
    N1177    N        0.20581    0.25484    0.43855    1.000
    N1178    N        0.17895    0.36885    0.50448    1.000
    N1179    N        0.17659    0.29683    0.59231    1.000
    N1180    N        0.19184    0.37809    0.57101    1.000
    Si1181   Si       0.19586    0.39656    0.53191    1.000
    N1182    N        0.18952    0.49698    0.54413    1.000
    Si1183   Si       0.18245    0.46451    0.51484    1.000
    N1184    N        0.16856    0.43006    0.53717    1.000
    Si1185   Si       0.17101    0.28748    0.70035    1.000
    N1186    N        0.19926    0.35422    0.62828    1.000
    Si1187   Si       0.21296    0.34229    0.73246    1.000
    N1188    N        0.18264    0.31264    0.73245    1.000
    Si1189   Si       0.18853    0.31252    0.62943    1.000
    Si1190   Si       0.19482    0.37671    0.66359    1.000
    N1191    N        0.20674    0.50507    0.74288    1.000
    Si1192   Si       0.20000    0.47293    0.71520    1.000
    N1193    N        0.21922    0.41269    0.66006    1.000
    N1194    N        0.20674    0.43338    0.73121    1.000
    Si1195   Si       0.17442    0.40622    0.72210    1.000
    N1196    N        0.18070    0.46860    0.63693    1.000
    Si1197   Si       0.22056    0.45379    0.64660    1.000
    Si1198   Si       0.16800    0.50199    0.66341    1.000
    Si1199   Si       0.17982    0.31526    0.83801    1.000
    N1200    N        0.17530    0.26710    0.78449    1.000
    N1201    N        0.18856    0.37428    0.75019    1.000
    N1202    N        0.17797    0.27012    0.85112    1.000
    N1203    N        0.16728    0.33078    0.79900    1.000
    Si1204   Si       0.16898    0.37191    0.78835    1.000
    Si1205   Si       0.22049    0.49953    0.78489    1.000
    Si1206   Si       0.21077    0.43204    0.82679    1.000
    N1207    N        0.18747    0.45695    0.85452    1.000
    N1208    N        0.18299    0.40054    0.81745    1.000
    N1209    N        0.22752    0.45837    0.79623    1.000
    N1210    N        0.21068    0.34400    0.97264    1.000
    Si1211   Si       0.19400    0.28767    0.95017    1.000
    Si1212   Si       0.16870    0.35083    0.96449    1.000
    N1213    N        0.18462    0.42617    0.96871    1.000
    N1214    N        0.20342    0.49207    0.90989    1.000
    Si1215   Si       0.18647    0.45498    0.89629    1.000
    N1216    N        0.21757    0.42686    0.90994    1.000
    Si1217   Si       0.16714    0.25450    0.88861    1.000
    Si1218   Si       0.18599    0.59911    0.03339    1.000
    Si1219   Si       0.20794    0.57769    0.09913    1.000
    N1220    N        0.21882    0.59313    0.06067    1.000
    N1221    N        0.18851    0.56750    0.00288    1.000
    N1222    N        0.16636    0.56523    0.10101    1.000
    N1223    N        0.18465    0.67070    0.21814    1.000
    N1224    N        0.18031    0.63449    0.01080    1.000
    N1225    N        0.18939    0.68683    0.04785    1.000
    Si1226   Si       0.17523    0.68966    0.00727    1.000
    N1227    N        0.17799    0.73583    0.00114    1.000
    N1228    N        0.19690    0.75187    0.06792    1.000
    Si1229   Si       0.21897    0.71630    0.05438    1.000
    N1230    N        0.16848    0.63530    0.09741    1.000
    Si1231   Si       0.19931    0.57091    0.24183    1.000
    N1232    N        0.18569    0.59501    0.21008    1.000
    Si1233   Si       0.18670    0.52454    0.16478    1.000
    N1234    N        0.21767    0.60549    0.13249    1.000
    Si1235   Si       0.19892    0.50743    0.23546    1.000
    Si1236   Si       0.20289    0.63244    0.22451    1.000
    N1237    N        0.20054    0.75124    0.13711    1.000
    N1238    N        0.21811    0.73028    0.19667    1.000
    Si1239   Si       0.19342    0.69800    0.18392    1.000
    Si1240   Si       0.18777    0.63925    0.13540    1.000
    N1241    N        0.21074    0.67361    0.14896    1.000
    N1242    N        0.19710    0.54733    0.32555    1.000
    N1243    N        0.20785    0.61762    0.33253    1.000
    N1244    N        0.20503    0.61209    0.26690    1.000
    Si1245   Si       0.21371    0.53275    0.36382    1.000
    N1246    N        0.17156    0.53676    0.25062    1.000
    Si1247   Si       0.18587    0.63419    0.29970    1.000
    N1248    N        0.19819    0.67615    0.31918    1.000
    Si1249   Si       0.21083    0.65277    0.35995    1.000
    N1250    N        0.16362    0.73812    0.33579    1.000
    N1251    N        0.18960    0.54342    0.39939    1.000
    Si1252   Si       0.18661    0.52490    0.43889    1.000
    Si1253   Si       0.16480    0.59607    0.47093    1.000
    N1254    N        0.19933    0.60447    0.49647    1.000
    N1255    N        0.16815    0.60589    0.42768    1.000
    N1256    N        0.22464    0.63228    0.39870    1.000
    Si1257   Si       0.18652    0.64290    0.41635    1.000
    N1258    N        0.17337    0.66400    0.38261    1.000
    Si1259   Si       0.20963    0.67917    0.47569    1.000
    Si1260   Si       0.19660    0.74771    0.44292    1.000
    N1261    N        0.17783    0.66984    0.44922    1.000
    N1262    N        0.20026    0.75511    0.40033    1.000
    Si1263   Si       0.18149    0.57155    0.58658    1.000
    N1264    N        0.21040    0.56647    0.55493    1.000
    Si1265   Si       0.18300    0.69316    0.62569    1.000
    N1266    N        0.18987    0.67503    0.51623    1.000
    N1267    N        0.20835    0.69688    0.58924    1.000
    Si1268   Si       0.21715    0.67646    0.55120    1.000
    N1269    N        0.20633    0.56573    0.62104    1.000
    N1270    N        0.18517    0.53896    0.67913    1.000
    Si1271   Si       0.18747    0.53970    0.72422    1.000
    Si1272   Si       0.17925    0.57462    0.65385    1.000
    N1273    N        0.18496    0.61796    0.65405    1.000
    N1274    N        0.21910    0.56634    0.73361    1.000
    N1275    N        0.17201    0.65822    0.70500    1.000
    Si1276   Si       0.20390    0.64491    0.67899    1.000
    N1277    N        0.17839    0.72919    0.64915    1.000
    Si1278   Si       0.16754    0.69808    0.73142    1.000
    Si1279   Si       0.21141    0.71686    0.67616    1.000
    N1280    N        0.20741    0.71109    0.71792    1.000
    N1281    N        0.21465    0.67970    0.65470    1.000
    Si1282   Si       0.20428    0.61597    0.81245    1.000
    N1283    N        0.17931    0.58178    0.80923    1.000
    N1284    N        0.18425    0.51007    0.80663    1.000
    N1285    N        0.18452    0.65211    0.82974    1.000
    Si1286   Si       0.18255    0.68613    0.80180    1.000
    Si1287   Si       0.20428    0.66731    0.86918    1.000
    N1288    N        0.18796    0.55388    0.87325    1.000
    Si1289   Si       0.17330    0.52273    0.89936    1.000
    N1290    N        0.18034    0.59329    0.93823    1.000
    Si1291   Si       0.18337    0.55674    0.96080    1.000
    Si1292   Si       0.21910    0.61164    0.92636    1.000
    N1293    N        0.22339    0.53705    0.96018    1.000
    N1294    N        0.19734    0.63619    0.89748    1.000
    Si1295   Si       0.21696    0.72744    0.97743    1.000
    N1296    N        0.19091    0.74078    0.94130    1.000
    N1297    N        0.18236    0.70226    0.87881    1.000
    N1298    N        0.20974    0.68604    0.98159    1.000
    Si1299   Si       0.20003    0.73700    0.89813    1.000
    N1300    N        0.20545    0.86928    0.05941    1.000
    N1301    N        0.19784    0.80489    0.03247    1.000
    Si1302   Si       0.21225    0.82744    0.06444    1.000
    N1303    N        0.20377    0.81271    0.10429    1.000
    Si1304   Si       0.21361    0.77101    0.10169    1.000
    Si1305   Si       0.17705    0.76562    0.03257    1.000
    Si1306   Si       0.16846    0.88165    0.04015    1.000
    Si1307   Si       0.18524    0.82320    0.99484    1.000
    N1308    N        0.16320    0.85933    0.00311    1.000
    N1309    N        0.19524    0.93908    0.09997    1.000
    N1310    N        0.17673    0.98824    0.04899    1.000
    Si1311   Si       0.17577    0.99505    0.00551    1.000
    Si1312   Si       0.19946    0.83671    0.14065    1.000
    N1313    N        0.17837    0.87409    0.12889    1.000
    N1314    N        0.18499    0.80876    0.17492    1.000
    Si1315   Si       0.20761    0.76773    0.17622    1.000
    N1316    N        0.18927    0.83238    0.23926    1.000
    N1317    N        0.22162    0.92281    0.16304    1.000
    N1318    N        0.20164    0.94243    0.23718    1.000
    Si1319   Si       0.18705    0.91552    0.13702    1.000
    Si1320   Si       0.19869    0.95112    0.18763    1.000
    N1321    N        0.20433    0.99136    0.17294    1.000
    Si1322   Si       0.16619    0.95198    0.07038    1.000
    N1323    N        0.20358    0.77505    0.27410    1.000
    Si1324   Si       0.18458    0.76693    0.36253    1.000
    Si1325   Si       0.22032    0.81664    0.26243    1.000
    N1326    N        0.21855    0.78944    0.35242    1.000
    Si1327   Si       0.22094    0.87979    0.30383    1.000
    N1328    N        0.22427    0.83697    0.30065    1.000
    Si1329   Si       0.21858    0.98891    0.46552    1.000
    Si1330   Si       0.16809    0.92257    0.25882    1.000
    N1331    N        0.18196    0.98283    0.29058    1.000
    N1332    N        0.18595    0.89140    0.27980    1.000
    N1333    N        0.20980    0.95479    0.34834    1.000
    Si1334   Si       0.18261    0.98621    0.33351    1.000
    Si1335   Si       0.20280    0.91442    0.36080    1.000
    Si1336   Si       0.19775    0.98489    0.25002    1.000
    N1337    N        0.16681    0.88916    0.35017    1.000
    N1338    N        0.20565    0.78308    0.46834    1.000
    N1339    N        0.20358    0.85305    0.45527    1.000
    Si1340   Si       0.21833    0.87052    0.49390    1.000
    Si1341   Si       0.16546    0.75853    0.26364    1.000
    N1342    N        0.19535    0.90798    0.40306    1.000
    Si1343   Si       0.21898    0.92538    0.43463    1.000
    N1344    N        0.19444    0.96221    0.44372    1.000
    Si1345   Si       0.21126    0.78620    0.58023    1.000
    Si1346   Si       0.19825    0.79197    0.50986    1.000
    Si1347   Si       0.21724    0.85864    0.60504    1.000
    N1348    N        0.16858    0.78428    0.58509    1.000
    N1349    N        0.21827    0.82936    0.51207    1.000
    N1350    N        0.18666    0.88490    0.58550    1.000
    N1351    N        0.18375    0.88745    0.51315    1.000
    N1352    N        0.20116    0.94492    0.54783    1.000
    Si1353   Si       0.20150    0.90099    0.54805    1.000
    N1354    N        0.19905    0.99877    0.50291    1.000
    Si1355   Si       0.17023    0.96504    0.52373    1.000
    N1356    N        0.21133    0.97042    0.61393    1.000
    Si1357   Si       0.19571    0.83232    0.67636    1.000
    N1358    N        0.18783    0.84961    0.63618    1.000
    N1359    N        0.20200    0.79133    0.66148    1.000
    N1360    N        0.20159    0.90678    0.67422    1.000
    Si1361   Si       0.17909    0.98897    0.63343    1.000
    N1362    N        0.22247    0.77091    0.54129    1.000
    Si1363   Si       0.21960    0.93063    0.70468    1.000
    N1364    N        0.19859    0.79221    0.74985    1.000
    Si1365   Si       0.20757    0.79225    0.84429    1.000
    Si1366   Si       0.19556    0.82563    0.78003    1.000
    N1367    N        0.17800    0.86303    0.76639    1.000
    N1368    N        0.18038    0.81607    0.81947    1.000
    N1369    N        0.21307    0.75700    0.82034    1.000
    N1370    N        0.18942    0.89909    0.88092    1.000
    N1371    N        0.21862    0.92026    0.74656    1.000
    Si1372   Si       0.17126    0.90091    0.84251    1.000
    N1373    N        0.20298    0.90431    0.81438    1.000
    Si1374   Si       0.18833    0.90353    0.77384    1.000
    N1375    N        0.17989    0.98569    0.80055    1.000
    N1376    N        0.22407    0.93724    0.93332    1.000
    Si1377   Si       0.21856    0.83232    0.91798    1.000
    N1378    N        0.21420    0.82732    0.96387    1.000
    N1379    N        0.18931    0.77488    0.88105    1.000
    N1380    N        0.17677    0.83706    0.90539    1.000
    Si1381   Si       0.18128    0.94217    0.94370    1.000
    N1382    N        0.16857    0.89991    0.94539    1.000
    N1383    N        0.17028    0.95747    0.98249    1.000
    N1384    N        0.26760    0.07534    0.10431    1.000
    N1385    N        0.26259    0.02333    0.03384    1.000
    Si1386   Si       0.26826    0.11472    0.08785    1.000
    N1387    N        0.22930    0.11992    0.06281    1.000
    Si1388   Si       0.23223    0.05559    0.11496    1.000
    Si1389   Si       0.26920    0.19190    0.18261    1.000
    N1390    N        0.27727    0.08592    0.99936    1.000
    N1391    N        0.24860    0.18778    0.07449    1.000
    N1392    N        0.26879    0.23240    0.01765    1.000
    N1393    N        0.27179    0.16050    0.01272    1.000
    Si1394   Si       0.24028    0.15776    0.04312    1.000
    N1395    N        0.23596    0.18348    0.15426    1.000
    N1396    N        0.25028    0.10420    0.18169    1.000
    N1397    N        0.24580    0.04062    0.15227    1.000
    Si1398   Si       0.26997    0.06521    0.17844    1.000
    N1399    N        0.27613    0.05973    0.22247    1.000
    Si1400   Si       0.23827    0.04990    0.24196    1.000
    Si1401   Si       0.25987    0.12529    0.21742    1.000
    N1402    N        0.26173    0.23486    0.19088    1.000
    Si1403   Si       0.26225    0.24764    0.14784    1.000
    N1404    N        0.25599    0.17254    0.22103    1.000
    Si1405   Si       0.28431    0.19235    0.09778    1.000
    N1406    N        0.26034    0.06862    0.34686    1.000
    Si1407   Si       0.24416    0.10960    0.35346    1.000
    N1408    N        0.23748    0.12795    0.31339    1.000
    N1409    N        0.22654    0.06427    0.28001    1.000
    N1410    N        0.24880    0.01227    0.31432    1.000
    Si1411   Si       0.27201    0.16618    0.38771    1.000
    N1412    N        0.24893    0.18170    0.35402    1.000
    N1413    N        0.24332    0.23416    0.31677    1.000
    Si1414   Si       0.24463    0.23212    0.36157    1.000
    Si1415   Si       0.24256    0.17105    0.31251    1.000
    N1416    N        0.27559    0.18217    0.28608    1.000
    Si1417   Si       0.28083    0.22423    0.29583    1.000
    N1418    N        0.25143    0.07937    0.45091    1.000
    N1419    N        0.23188    0.01394    0.43378    1.000
    Si1420   Si       0.28099    0.07091    0.47950    1.000
    N1421    N        0.23761    0.16430    0.41346    1.000
    N1422    N        0.24688    0.15426    0.48516    1.000
    Si1423   Si       0.28423    0.03637    0.35862    1.000
    N1424    N        0.28098    0.12460    0.37555    1.000
    N1425    N        0.25893    0.10547    0.58037    1.000
    Si1426   Si       0.23001    0.08407    0.60544    1.000
    Si1427   Si       0.27029    0.02562    0.58871    1.000
    Si1428   Si       0.24946    0.12592    0.51776    1.000
    N1429    N        0.26791    0.03419    0.49765    1.000
    N1430    N        0.25431    0.04957    0.62189    1.000
    Si1431   Si       0.23547    0.25195    0.71758    1.000
    N1432    N        0.24416    0.22723    0.50020    1.000
    Si1433   Si       0.26632    0.18968    0.51167    1.000
    Si1434   Si       0.25617    0.14900    0.58497    1.000
    N1435    N        0.25660    0.15887    0.54540    1.000
    Si1436   Si       0.25984    0.24690    0.53800    1.000
    N1437    N        0.23087    0.24939    0.57107    1.000
    N1438    N        0.22858    0.17578    0.60484    1.000
    N1439    N        0.25381    0.22984    0.63142    1.000
    Si1440   Si       0.27295    0.04880    0.66187    1.000
    N1441    N        0.24911    0.02528    0.68890    1.000
    Si1442   Si       0.24044    0.09955    0.70485    1.000
    N1443    N        0.27623    0.08507    0.68478    1.000
    Si1444   Si       0.26746    0.17099    0.70439    1.000
    N1445    N        0.25020    0.13682    0.72536    1.000
    Si1446   Si       0.27406    0.19361    0.63660    1.000
    N1447    N        0.25219    0.16717    0.66526    1.000
    N1448    N        0.25423    0.21366    0.71377    1.000
    N1449    N        0.23897    0.07919    0.74471    1.000
    Si1450   Si       0.25008    0.05310    0.77822    1.000
    N1451    N        0.27267    0.08634    0.79887    1.000
    Si1452   Si       0.27449    0.12071    0.82645    1.000
    Si1453   Si       0.26694    0.11622    0.75926    1.000
    N1454    N        0.22995    0.11567    0.83942    1.000
    Si1455   Si       0.25781    0.20362    0.92224    1.000
    N1456    N        0.23863    0.25201    0.82642    1.000
    N1457    N        0.26425    0.14749    0.78867    1.000
    Si1458   Si       0.25080    0.18916    0.79081    1.000
    Si1459   Si       0.25484    0.22166    0.85439    1.000
    N1460    N        0.23737    0.18606    0.83430    1.000
    N1461    N        0.24580    0.06182    0.87765    1.000
    N1462    N        0.23319    0.06596    0.94705    1.000
    Si1463   Si       0.25181    0.09872    0.96677    1.000
    Si1464   Si       0.26220    0.03756    0.93486    1.000
    Si1465   Si       0.23332    0.01873    0.87855    1.000
    N1466    N        0.23152    0.12573    0.90595    1.000
    N1467    N        0.27991    0.02445    0.97320    1.000
    N1468    N        0.25348    0.23669    0.89343    1.000
    N1469    N        0.27788    0.17851    0.89282    1.000
    Si1470   Si       0.27362    0.13212    0.90102    1.000
    Si1471   Si       0.25984    0.36430    0.06860    1.000
    N1472    N        0.25691    0.34424    0.10846    1.000
    N1473    N        0.24645    0.30170    0.01942    1.000
    Si1474   Si       0.23338    0.25887    0.01756    1.000
    Si1475   Si       0.27530    0.47830    0.16254    1.000
    N1476    N        0.26426    0.40802    0.06615    1.000
    Si1477   Si       0.23790    0.46932    0.01136    1.000
    N1478    N        0.24548    0.47365    0.07442    1.000
    Si1479   Si       0.22870    0.43158    0.06812    1.000
    N1480    N        0.27663    0.50302    0.12676    1.000
    Si1481   Si       0.24484    0.33022    0.23796    1.000
    N1482    N        0.25596    0.29690    0.21217    1.000
    N1483    N        0.27236    0.36402    0.23223    1.000
    Si1484   Si       0.23016    0.35401    0.14147    1.000
    N1485    N        0.25172    0.37944    0.16839    1.000
    Si1486   Si       0.23239    0.25858    0.21351    1.000
    N1487    N        0.27771    0.28820    0.14442    1.000
    Si1488   Si       0.23906    0.41866    0.18461    1.000
    N1489    N        0.23855    0.45351    0.15561    1.000
    N1490    N        0.27397    0.42569    0.21253    1.000
    N1491    N        0.24684    0.31340    0.27658    1.000
    N1492    N        0.24373    0.35337    0.33204    1.000
    Si1493   Si       0.27939    0.33190    0.33947    1.000
    Si1494   Si       0.24005    0.39411    0.31722    1.000
    N1495    N        0.23975    0.40964    0.27467    1.000
    N1496    N        0.26945    0.41684    0.34008    1.000
    Si1497   Si       0.27487    0.40379    0.25091    1.000
    N1498    N        0.22802    0.47712    0.24984    1.000
    N1499    N        0.23407    0.27412    0.37828    1.000
    N1500    N        0.25570    0.30268    0.43496    1.000
    Si1501   Si       0.27514    0.28275    0.40054    1.000
    Si1502   Si       0.27572    0.32045    0.46727    1.000
    Si1503   Si       0.26418    0.38212    0.43856    1.000
    N1504    N        0.27800    0.41096    0.46995    1.000
    Si1505   Si       0.26719    0.42204    0.38367    1.000
    N1506    N        0.27917    0.38320    0.39798    1.000
    Si1507   Si       0.24686    0.49527    0.48579    1.000
    Si1508   Si       0.26652    0.32569    0.53815    1.000
    N1509    N        0.23809    0.32516    0.57057    1.000
    N1510    N        0.28195    0.28465    0.53850    1.000
    Si1511   Si       0.22422    0.35976    0.59217    1.000
    Si1512   Si       0.22091    0.28864    0.58467    1.000
    N1513    N        0.24723    0.33398    0.49865    1.000
    N1514    N        0.25254    0.39225    0.59043    1.000
    N1515    N        0.23530    0.39856    0.52092    1.000
    Si1516   Si       0.27026    0.39547    0.55078    1.000
    Si1517   Si       0.25836    0.43318    0.50366    1.000
    Si1518   Si       0.27571    0.49171    0.61033    1.000
    N1519    N        0.22498    0.46052    0.49938    1.000
    Si1520   Si       0.26004    0.26929    0.64818    1.000
    N1521    N        0.26088    0.27608    0.69333    1.000
    N1522    N        0.22900    0.29083    0.62797    1.000
    N1523    N        0.22998    0.47543    0.68353    1.000
    Si1524   Si       0.26842    0.48095    0.70415    1.000
    N1525    N        0.25602    0.45436    0.61974    1.000
    Si1526   Si       0.27545    0.41427    0.61851    1.000
    Si1527   Si       0.25020    0.38945    0.68329    1.000
    N1528    N        0.27555    0.39632    0.71787    1.000
    N1529    N        0.22074    0.36006    0.69476    1.000
    Si1530   Si       0.25497    0.29222    0.83410    1.000
    Si1531   Si       0.27085    0.30025    0.76295    1.000
    N1532    N        0.23998    0.27086    0.75521    1.000
    Si1533   Si       0.27455    0.37416    0.75675    1.000
    N1534    N        0.25108    0.33831    0.75417    1.000
    N1535    N        0.22307    0.32019    0.82962    1.000
    N1536    N        0.26113    0.40278    0.78453    1.000
    N1537    N        0.24218    0.41186    0.84830    1.000
    Si1538   Si       0.23630    0.43527    0.76178    1.000
    Si1539   Si       0.27839    0.40668    0.82466    1.000
    N1540    N        0.26816    0.46178    0.74564    1.000
    N1541    N        0.27522    0.30220    0.87188    1.000
    Si1542   Si       0.24126    0.33703    0.94029    1.000
    N1543    N        0.25188    0.36241    0.90425    1.000
    Si1544   Si       0.26043    0.27774    0.90607    1.000
    N1545    N        0.22829    0.29908    0.92555    1.000
    N1546    N        0.28117    0.34297    0.95921    1.000
    N1547    N        0.26279    0.40843    0.96319    1.000
    Si1548   Si       0.24676    0.40306    0.89026    1.000
    Si1549   Si       0.23409    0.50356    0.93628    1.000
    N1550    N        0.24326    0.46857    0.96383    1.000
    Si1551   Si       0.22421    0.42991    0.95252    1.000
    N1552    N        0.26096    0.56701    0.01512    1.000
    Si1553   Si       0.25680    0.60170    0.04206    1.000
    Si1554   Si       0.22592    0.54498    0.00366    1.000
    N1555    N        0.25102    0.64081    0.02709    1.000
    N1556    N        0.23824    0.73270    0.02076    1.000
    N1557    N        0.24573    0.70290    0.08648    1.000
    Si1558   Si       0.27532    0.73081    0.10220    1.000
    N1559    N        0.27018    0.64097    0.11936    1.000
    N1560    N        0.22454    0.53556    0.09067    1.000
    N1561    N        0.27628    0.57021    0.11896    1.000
    Si1562   Si       0.25058    0.53628    0.12326    1.000
    N1563    N        0.23084    0.54361    0.23035    1.000
    N1564    N        0.27073    0.58982    0.18118    1.000
    Si1565   Si       0.26023    0.60440    0.14009    1.000
    Si1566   Si       0.25250    0.55057    0.19176    1.000
    N1567    N        0.26841    0.50699    0.19736    1.000
    N1568    N        0.22560    0.54191    0.15884    1.000
    Si1569   Si       0.25976    0.51029    0.24200    1.000
    Si1570   Si       0.25845    0.74531    0.20754    1.000
    N1571    N        0.27508    0.70789    0.13872    1.000
    Si1572   Si       0.24834    0.67797    0.12533    1.000
    N1573    N        0.24562    0.63180    0.22326    1.000
    N1574    N        0.22490    0.50800    0.02247    1.000
    N1575    N        0.25940    0.58851    0.29205    1.000
    Si1576   Si       0.24996    0.62203    0.26599    1.000
    N1577    N        0.24468    0.56199    0.35851    1.000
    Si1578   Si       0.22703    0.57924    0.32179    1.000
    N1579    N        0.24997    0.72488    0.31575    1.000
    Si1580   Si       0.24032    0.68255    0.31377    1.000
    N1581    N        0.25184    0.67117    0.35486    1.000
    N1582    N        0.26214    0.65849    0.28480    1.000
    N1583    N        0.26217    0.74038    0.25124    1.000
    Si1584   Si       0.23979    0.75440    0.28552    1.000
    N1585    N        0.22663    0.51991    0.45479    1.000
    N1586    N        0.24907    0.58756    0.44202    1.000
    Si1587   Si       0.23906    0.60875    0.47634    1.000
    Si1588   Si       0.26141    0.61551    0.41045    1.000
    Si1589   Si       0.26043    0.54603    0.43904    1.000
    N1590    N        0.24033    0.65042    0.47076    1.000
    Si1591   Si       0.26142    0.73654    0.46429    1.000
    N1592    N        0.26387    0.75223    0.42433    1.000
    N1593    N        0.22307    0.71929    0.46448    1.000
    N1594    N        0.25008    0.52213    0.59219    1.000
    N1595    N        0.25894    0.59115    0.51244    1.000
    N1596    N        0.25027    0.52008    0.52210    1.000
    Si1597   Si       0.24856    0.56164    0.61246    1.000
    N1598    N        0.27530    0.58703    0.58446    1.000
    Si1599   Si       0.22473    0.52283    0.55587    1.000
    Si1600   Si       0.26878    0.63036    0.58474    1.000
    Si1601   Si       0.27965    0.55126    0.51281    1.000
    N1602    N        0.23374    0.63609    0.55663    1.000
    Si1603   Si       0.25943    0.74914    0.53237    1.000
    N1604    N        0.27191    0.69857    0.60721    1.000
    N1605    N        0.24971    0.70593    0.54362    1.000
    Si1606   Si       0.24411    0.72429    0.58808    1.000
    Si1607   Si       0.23433    0.60752    0.73665    1.000
    N1608    N        0.23663    0.62497    0.69638    1.000
    Si1609   Si       0.26690    0.61098    0.66605    1.000
    N1610    N        0.26678    0.56784    0.65089    1.000
    N1611    N        0.27423    0.52392    0.70964    1.000
    Si1612   Si       0.25786    0.54949    0.74349    1.000
    N1613    N        0.25937    0.63415    0.62830    1.000
    Si1614   Si       0.25621    0.67568    0.63980    1.000
    N1615    N        0.24895    0.73724    0.67144    1.000
    Si1616   Si       0.22256    0.60223    0.53428    1.000
    N1617    N        0.25376    0.54005    0.85148    1.000
    N1618    N        0.25392    0.52985    0.78118    1.000
    N1619    N        0.23549    0.60778    0.83978    1.000
    Si1620   Si       0.27635    0.54042    0.81476    1.000
    N1621    N        0.22441    0.62742    0.77481    1.000
    Si1622   Si       0.22716    0.57217    0.86472    1.000
    N1623    N        0.27339    0.59120    0.74758    1.000
    N1624    N        0.27035    0.67996    0.74583    1.000
    Si1625   Si       0.26626    0.63702    0.84665    1.000
    Si1626   Si       0.24126    0.73030    0.80561    1.000
    Si1627   Si       0.25047    0.66104    0.77997    1.000
    N1628    N        0.25348    0.74694    0.76445    1.000
    N1629    N        0.24682    0.67145    0.86314    1.000
    N1630    N        0.27376    0.73063    0.83490    1.000
    Si1631   Si       0.23957    0.71209    0.74504    1.000
    Si1632   Si       0.26920    0.70699    0.87086    1.000
    N1633    N        0.28173    0.65496    0.80866    1.000
    N1634    N        0.22396    0.69437    0.78697    1.000
    N1635    N        0.24241    0.58232    0.90369    1.000
    N1636    N        0.24252    0.62681    0.95983    1.000
    N1637    N        0.26798    0.51776    0.91357    1.000
    Si1638   Si       0.27869    0.55972    0.91852    1.000
    N1639    N        0.24252    0.72813    0.89807    1.000
    N1640    N        0.25484    0.74654    0.96468    1.000
    Si1641   Si       0.22148    0.64651    0.99429    1.000
    N1642    N        0.25672    0.83500    0.06413    1.000
    N1643    N        0.25606    0.76951    0.09714    1.000
    N1644    N        0.26761    0.80181    0.00339    1.000
    Si1645   Si       0.27581    0.80765    0.09345    1.000
    Si1646   Si       0.24717    0.87787    0.05761    1.000
    Si1647   Si       0.23898    0.94323    0.09571    1.000
    Si1648   Si       0.26822    0.94125    0.02083    1.000
    N1649    N        0.25854    0.90323    0.09323    1.000
    N1650    N        0.25160    0.96203    0.05857    1.000
    N1651    N        0.25991    0.89743    0.02023    1.000
    Si1652   Si       0.26857    0.75768    0.00346    1.000
    Si1653   Si       0.25943    0.00334    0.07101    1.000
    N1654    N        0.24978    0.78289    0.18312    1.000
    Si1655   Si       0.26251    0.82056    0.16937    1.000
    N1656    N        0.23615    0.85317    0.15845    1.000
    N1657    N        0.25595    0.82454    0.23920    1.000
    N1658    N        0.25111    0.88823    0.21549    1.000
    N1659    N        0.25798    0.97114    0.12617    1.000
    Si1660   Si       0.24475    0.99699    0.15938    1.000
    Si1661   Si       0.24099    0.91933    0.24221    1.000
    Si1662   Si       0.25176    0.89212    0.17232    1.000
    Si1663   Si       0.27087    0.98882    0.23227    1.000
    N1664    N        0.23221    0.00699    0.24265    1.000
    N1665    N        0.27407    0.94641    0.23718    1.000
    N1666    N        0.27581    0.99728    0.19058    1.000
    Si1667   Si       0.28103    0.86104    0.22895    1.000
    Si1668   Si       0.24628    0.81097    0.32596    1.000
    N1669    N        0.26726    0.78722    0.29520    1.000
    Si1670   Si       0.27113    0.87489    0.35868    1.000
    N1671    N        0.27676    0.83444    0.34539    1.000
    N1672    N        0.27904    0.76998    0.36628    1.000
    N1673    N        0.27843    0.95928    0.31837    1.000
    N1674    N        0.23193    0.88888    0.34633    1.000
    Si1675   Si       0.24747    0.97781    0.34391    1.000
    N1676    N        0.24974    0.90288    0.28196    1.000
    N1677    N        0.24055    0.81464    0.41362    1.000
    N1678    N        0.26996    0.82767    0.46563    1.000
    Si1679   Si       0.24057    0.77559    0.39045    1.000
    Si1680   Si       0.27655    0.84077    0.42370    1.000
    Si1681   Si       0.22895    0.81718    0.45594    1.000
    N1682    N        0.27680    0.87749    0.40255    1.000
    Si1683   Si       0.26814    0.93068    0.48230    1.000
    N1684    N        0.23349    0.90735    0.47331    1.000
    N1685    N        0.25711    0.97211    0.48467    1.000
    N1686    N        0.25835    0.94547    0.41923    1.000
    N1687    N        0.26842    0.99946    0.37702    1.000
    Si1688   Si       0.26461    0.98936    0.41755    1.000
    Si1689   Si       0.24819    0.83592    0.54258    1.000
    N1690    N        0.22834    0.82597    0.58044    1.000
    N1691    N        0.23325    0.76114    0.60864    1.000
    N1692    N        0.21931    0.97284    0.70205    1.000
    N1693    N        0.24072    0.88072    0.53935    1.000
    N1694    N        0.24370    0.00365    0.55992    1.000
    N1695    N        0.26100    0.93537    0.57536    1.000
    Si1696   Si       0.27538    0.90420    0.55160    1.000
    Si1697   Si       0.22860    0.96570    0.57382    1.000
    Si1698   Si       0.23962    0.00802    0.51921    1.000
    N1699    N        0.24977    0.87436    0.62586    1.000
    N1700    N        0.27415    0.79756    0.66039    1.000
    Si1701   Si       0.26856    0.82101    0.69610    1.000
    N1702    N        0.23490    0.84587    0.68731    1.000
    Si1703   Si       0.23974    0.77540    0.64916    1.000
    N1704    N        0.27538    0.79940    0.73341    1.000
    Si1705   Si       0.26225    0.98659    0.70301    1.000
    N1706    N        0.26004    0.91397    0.69020    1.000
    Si1707   Si       0.23764    0.88498    0.66572    1.000
    N1708    N        0.27442    0.97200    0.74085    1.000
    N1709    N        0.28183    0.76007    0.49651    1.000
    N1710    N        0.24086    0.81760    0.79091    1.000
    N1711    N        0.26856    0.87253    0.82359    1.000
    Si1712   Si       0.26558    0.82939    0.82512    1.000
    N1713    N        0.24431    0.81211    0.85934    1.000
    Si1714   Si       0.24061    0.78963    0.75729    1.000
    N1715    N        0.25900    0.93982    0.80507    1.000
    Si1716   Si       0.24470    0.90830    0.83063    1.000
    Si1717   Si       0.25695    0.93470    0.76154    1.000
    N1718    N        0.24847    0.99680    0.84387    1.000
    Si1719   Si       0.25617    0.81730    0.96556    1.000
    N1720    N        0.25450    0.80013    0.92281    1.000
    N1721    N        0.23968    0.86914    0.91399    1.000
    Si1722   Si       0.26257    0.75752    0.92376    1.000
    N1723    N        0.27994    0.85524    0.96401    1.000
    Si1724   Si       0.28067    0.79842    0.88350    1.000
    Si1725   Si       0.22672    0.90824    0.90074    1.000
    N1726    N        0.24532    0.00163    0.91667    1.000
    N1727    N        0.25763    0.96386    0.98585    1.000
    Si1728   Si       0.25428    0.96609    0.94179    1.000
    N1729    N        0.25298    0.92417    0.87202    1.000
    Si1730   Si       0.28012    0.96946    0.82970    1.000
    Si1731   Si       0.24914    0.00485    0.99799    1.000
    N1732    N        0.29803    0.11286    0.05518    1.000
    N1733    N        0.32780    0.03127    0.03201    1.000
    Si1734   Si       0.29475    0.12461    0.01317    1.000
    Si1735   Si       0.29237    0.04545    0.01034    1.000
    N1736    N        0.33520    0.06799    0.09450    1.000
    N1737    N        0.29951    0.01144    0.09374    1.000
    Si1738   Si       0.33858    0.02388    0.07746    1.000
    Si1739   Si       0.30160    0.05207    0.11675    1.000
    Si1740   Si       0.33646    0.09790    0.06162    1.000
    N1741    N        0.31432    0.21208    0.07521    1.000
    N1742    N        0.28845    0.14764    0.11100    1.000
    N1743    N        0.33114    0.19165    0.00942    1.000
    Si1744   Si       0.29093    0.19876    0.99771    1.000
    Si1745   Si       0.32366    0.25566    0.07684    1.000
    N1746    N        0.30607    0.16966    0.17520    1.000
    N1747    N        0.30870    0.05503    0.16199    1.000
    Si1748   Si       0.31344    0.01273    0.17812    1.000
    Si1749   Si       0.31082    0.04475    0.24279    1.000
    N1750    N        0.33857    0.02739    0.21132    1.000
    N1751    N        0.29701    0.12909    0.23997    1.000
    Si1752   Si       0.29351    0.24009    0.22136    1.000
    Si1753   Si       0.32026    0.15091    0.13901    1.000
    Si1754   Si       0.33864    0.21994    0.13095    1.000
    N1755    N        0.29265    0.21890    0.13198    1.000
    Si1756   Si       0.33745    0.18908    0.19809    1.000
    N1757    N        0.31687    0.20362    0.23036    1.000
    N1758    N        0.31134    0.02479    0.32713    1.000
    N1759    N        0.32713    0.06962    0.27224    1.000
    Si1760   Si       0.33241    0.10806    0.25281    1.000
    Si1761   Si       0.33478    0.05888    0.31250    1.000
    N1762    N        0.33241    0.09761    0.33661    1.000
    Si1763   Si       0.31572    0.22864    0.40645    1.000
    N1764    N        0.28514    0.24550    0.37418    1.000
    N1765    N        0.31996    0.22795    0.31376    1.000
    Si1766   Si       0.29303    0.17234    0.24809    1.000
    N1767    N        0.30132    0.18753    0.40754    1.000
    Si1768   Si       0.31438    0.09592    0.37585    1.000
    Si1769   Si       0.33030    0.02383    0.41261    1.000
    N1770    N        0.30770    0.05548    0.39091    1.000
    N1771    N        0.32083    0.08236    0.46527    1.000
    N1772    N        0.30316    0.05135    0.57180    1.000
    Si1773   Si       0.29111    0.08949    0.55750    1.000
    N1774    N        0.33117    0.10859    0.55518    1.000
    Si1775   Si       0.33124    0.09576    0.50840    1.000
    Si1776   Si       0.32904    0.21702    0.55911    1.000
    N1777    N        0.29099    0.16536    0.60762    1.000
    N1778    N        0.28848    0.21445    0.54615    1.000
    Si1779   Si       0.33091    0.17201    0.62215    1.000
    N1780    N        0.30631    0.17749    0.72392    1.000
    N1781    N        0.31616    0.03832    0.65362    1.000
    Si1782   Si       0.31323    0.09073    0.70765    1.000
    N1783    N        0.33845    0.12331    0.68992    1.000
    N1784    N        0.32306    0.24490    0.71117    1.000
    Si1785   Si       0.29259    0.21602    0.73546    1.000
    N1786    N        0.31497    0.19886    0.65548    1.000
    N1787    N        0.28332    0.09564    0.51507    1.000
    N1788    N        0.30295    0.18171    0.49253    1.000
    N1789    N        0.31714    0.05637    0.84358    1.000
    Si1790   Si       0.31162    0.05939    0.80094    1.000
    Si1791   Si       0.33608    0.12053    0.77831    1.000
    N1792    N        0.29007    0.03345    0.77346    1.000
    Si1793   Si       0.33247    0.12859    0.85749    1.000
    N1794    N        0.29178    0.11258    0.86836    1.000
    N1795    N        0.30791    0.11114    0.74709    1.000
    N1796    N        0.31977    0.13026    0.81698    1.000
    N1797    N        0.29599    0.21943    0.84006    1.000
    Si1798   Si       0.29843    0.24315    0.80561    1.000
    N1799    N        0.28106    0.21691    0.77505    1.000
    Si1800   Si       0.28789    0.06707    0.87333    1.000
    N1801    N        0.29791    0.04910    0.91110    1.000
    Si1802   Si       0.32434    0.10419    0.95329    1.000
    N1803    N        0.28446    0.11661    0.94003    1.000
    N1804    N        0.32845    0.12977    0.98816    1.000
    N1805    N        0.32759    0.23012    0.90004    1.000
    N1806    N        0.28450    0.21287    0.95672    1.000
    N1807    N        0.33958    0.16585    0.87580    1.000
    Si1808   Si       0.31315    0.19879    0.87462    1.000
    Si1809   Si       0.31350    0.24073    0.93779    1.000
    N1810    N        0.34010    0.24695    0.78684    1.000
    N1811    N        0.29492    0.34754    0.04705    1.000
    N1812    N        0.29216    0.28463    0.07404    1.000
    N1813    N        0.31258    0.29542    0.00143    1.000
    Si1814   Si       0.33489    0.36610    0.04020    1.000
    Si1815   Si       0.28728    0.31346    0.11024    1.000
    N1816    N        0.32488    0.33235    0.11105    1.000
    Si1817   Si       0.28582    0.30577    0.03590    1.000
    N1818    N        0.32425    0.40555    0.02506    1.000
    N1819    N        0.31305    0.45727    0.07830    1.000
    Si1820   Si       0.29710    0.43104    0.04615    1.000
    Si1821   Si       0.28488    0.49032    0.08649    1.000
    N1822    N        0.31752    0.27111    0.20359    1.000
    N1823    N        0.31103    0.33720    0.18162    1.000
    Si1824   Si       0.29074    0.29980    0.18488    1.000
    Si1825   Si       0.28714    0.37286    0.19272    1.000
    Si1826   Si       0.31538    0.43391    0.19917    1.000
    N1827    N        0.31321    0.46320    0.16887    1.000
    N1828    N        0.32723    0.39496    0.19080    1.000
    N1829    N        0.27967    0.45479    0.01434    1.000
    N1830    N        0.32685    0.30950    0.26709    1.000
    N1831    N        0.30095    0.35948    0.31532    1.000
    Si1832   Si       0.31300    0.26137    0.34146    1.000
    N1833    N        0.28926    0.29243    0.32093    1.000
    Si1834   Si       0.28629    0.29455    0.27720    1.000
    Si1835   Si       0.33513    0.34606    0.29171    1.000
    N1836    N        0.28296    0.45690    0.40564    1.000
    Si1837   Si       0.30443    0.40334    0.31961    1.000
    N1838    N        0.30557    0.41761    0.27887    1.000
    N1839    N        0.32849    0.49952    0.36619    1.000
    N1840    N        0.29655    0.35467    0.44704    1.000
    Si1841   Si       0.30859    0.34988    0.40348    1.000
    N1842    N        0.30943    0.30158    0.48403    1.000
    N1843    N        0.31241    0.26469    0.42661    1.000
    N1844    N        0.28986    0.31882    0.38117    1.000
    Si1845   Si       0.33812    0.28403    0.45564    1.000
    N1846    N        0.33610    0.49090    0.43303    1.000
    Si1847   Si       0.30429    0.49498    0.39997    1.000
    N1848    N        0.28355    0.47368    0.47422    1.000
    Si1849   Si       0.31812    0.50333    0.47081    1.000
    N1850    N        0.33166    0.41695    0.44098    1.000
    Si1851   Si       0.31838    0.38734    0.47045    1.000
    Si1852   Si       0.29717    0.44236    0.44504    1.000
    N1853    N        0.28245    0.25362    0.26173    1.000
    N1854    N        0.29332    0.35885    0.54551    1.000
    Si1855   Si       0.32464    0.28314    0.52257    1.000
    Si1856   Si       0.33552    0.35774    0.53989    1.000
    N1857    N        0.31093    0.48308    0.58423    1.000
    Si1858   Si       0.31720    0.44453    0.56546    1.000
    N1859    N        0.31555    0.41577    0.59895    1.000
    N1860    N        0.28546    0.43382    0.53914    1.000
    Si1861   Si       0.32682    0.47963    0.66925    1.000
    Si1862   Si       0.32918    0.33636    0.73522    1.000
    Si1863   Si       0.31330    0.36604    0.67022    1.000
    N1864    N        0.30220    0.28402    0.64899    1.000
    Si1865   Si       0.30381    0.28497    0.69544    1.000
    N1866    N        0.31288    0.33137    0.69497    1.000
    N1867    N        0.31107    0.29474    0.74438    1.000
    Si1868   Si       0.33675    0.31002    0.64005    1.000
    N1869    N        0.33435    0.35271    0.63419    1.000
    N1870    N        0.29656    0.45294    0.68623    1.000
    Si1871   Si       0.30917    0.42183    0.71280    1.000
    N1872    N        0.34280    0.48825    0.70780    1.000
    N1873    N        0.28069    0.38978    0.65357    1.000
    N1874    N        0.29762    0.50528    0.64771    1.000
    N1875    N        0.31712    0.36285    0.76730    1.000
    Si1876   Si       0.32825    0.35873    0.81241    1.000
    N1877    N        0.29297    0.36772    0.83856    1.000
    N1878    N        0.28374    0.28669    0.80253    1.000
    Si1879   Si       0.34101    0.26319    0.74713    1.000
    Si1880   Si       0.32135    0.47623    0.83604    1.000
    N1881    N        0.29766    0.44560    0.81688    1.000
    Si1882   Si       0.29909    0.45692    0.77593    1.000
    N1883    N        0.33055    0.48733    0.77590    1.000
    N1884    N        0.32682    0.43203    0.75068    1.000
    N1885    N        0.29124    0.27855    0.93615    1.000
    N1886    N        0.31992    0.34522    0.89514    1.000
    Si1887   Si       0.30861    0.31039    0.95995    1.000
    Si1888   Si       0.28761    0.38306    0.93953    1.000
    Si1889   Si       0.28189    0.34488    0.87507    1.000
    Si1890   Si       0.31753    0.44601    0.90334    1.000
    N1891    N        0.28529    0.41450    0.90452    1.000
    N1892    N        0.32970    0.38991    0.94840    1.000
    N1893    N        0.31587    0.45906    0.94775    1.000
    N1894    N        0.31065    0.47893    0.87894    1.000
    Si1895   Si       0.28217    0.44675    0.97148    1.000
    Si1896   Si       0.30366    0.56477    0.08668    1.000
    N1897    N        0.33054    0.53784    0.00202    1.000
    N1898    N        0.29352    0.52854    0.06498    1.000
    N1899    N        0.29513    0.60119    0.06547    1.000
    Si1900   Si       0.29501    0.54298    0.02509    1.000
    N1901    N        0.30925    0.62357    0.99977    1.000
    N1902    N        0.33604    0.63110    0.12088    1.000
    Si1903   Si       0.30456    0.63656    0.09313    1.000
    Si1904   Si       0.32270    0.75492    0.05835    1.000
    Si1905   Si       0.29256    0.65661    0.02441    1.000
    N1906    N        0.31703    0.73147    0.09373    1.000
    N1907    N        0.31433    0.66534    0.06027    1.000
    N1908    N        0.30672    0.74932    0.01908    1.000
    Si1909   Si       0.33285    0.54393    0.24393    1.000
    N1910    N        0.30856    0.63127    0.23848    1.000
    N1911    N        0.29893    0.73549    0.19475    1.000
    Si1912   Si       0.30406    0.70141    0.16973    1.000
    N1913    N        0.30204    0.65743    0.18015    1.000
    Si1914   Si       0.34001    0.65091    0.15880    1.000
    N1915    N        0.33774    0.56423    0.20713    1.000
    Si1916   Si       0.28284    0.62462    0.20391    1.000
    N1917    N        0.30552    0.55841    0.33189    1.000
    N1918    N        0.29354    0.52863    0.25940    1.000
    N1919    N        0.33260    0.57724    0.27604    1.000
    Si1920   Si       0.29118    0.56048    0.29064    1.000
    Si1921   Si       0.34106    0.61740    0.26425    1.000
    Si1922   Si       0.28584    0.55989    0.37046    1.000
    Si1923   Si       0.28395    0.73528    0.34011    1.000
    N1924    N        0.32986    0.64560    0.29610    1.000
    Si1925   Si       0.30057    0.66386    0.26717    1.000
    N1926    N        0.31706    0.70225    0.25613    1.000
    Si1927   Si       0.29976    0.74159    0.26994    1.000
    N1928    N        0.31630    0.74380    0.31091    1.000
    N1929    N        0.32525    0.65217    0.36610    1.000
    N1930    N        0.30210    0.71188    0.37322    1.000
    N1931    N        0.29577    0.59590    0.39287    1.000
    N1932    N        0.28998    0.53776    0.47245    1.000
    Si1933   Si       0.32226    0.62859    0.40396    1.000
    N1934    N        0.28149    0.53040    0.40546    1.000
    Si1935   Si       0.29840    0.74626    0.40006    1.000
    N1936    N        0.29002    0.70534    0.46821    1.000
    Si1937   Si       0.28712    0.67337    0.37797    1.000
    N1938    N        0.30489    0.64433    0.49033    1.000
    N1939    N        0.28793    0.65264    0.41901    1.000
    Si1940   Si       0.28183    0.66428    0.46093    1.000
    Si1941   Si       0.31618    0.57532    0.57367    1.000
    N1942    N        0.31698    0.55396    0.53576    1.000
    N1943    N        0.33832    0.54958    0.60425    1.000
    N1944    N        0.29976    0.65681    0.56604    1.000
    Si1945   Si       0.32103    0.66014    0.52662    1.000
    N1946    N        0.32332    0.70313    0.53211    1.000
    Si1947   Si       0.29898    0.70135    0.57017    1.000
    N1948    N        0.28561    0.74861    0.56742    1.000
    N1949    N        0.33858    0.71905    0.59220    1.000
    Si1950   Si       0.31527    0.72859    0.49575    1.000
    N1951    N        0.33108    0.55509    0.68575    1.000
    N1952    N        0.30885    0.61783    0.67496    1.000
    Si1953   Si       0.29222    0.54036    0.67275    1.000
    Si1954   Si       0.34066    0.53292    0.72245    1.000
    Si1955   Si       0.31177    0.69342    0.74188    1.000
    Si1956   Si       0.28979    0.72335    0.67849    1.000
    Si1957   Si       0.32070    0.65870    0.67728    1.000
    N1958    N        0.33685    0.66684    0.71769    1.000
    N1959    N        0.31975    0.74135    0.65394    1.000
    N1960    N        0.28304    0.68012    0.67350    1.000
    N1961    N        0.30244    0.73017    0.71861    1.000
    Si1962   Si       0.30769    0.58901    0.77383    1.000
    N1963    N        0.29651    0.58037    0.81511    1.000
    Si1964   Si       0.31825    0.58620    0.85237    1.000
    N1965    N        0.32650    0.55104    0.76033    1.000
    N1966    N        0.32956    0.62612    0.77129    1.000
    N1967    N        0.31013    0.51757    0.82837    1.000
    N1968    N        0.30277    0.62399    0.86686    1.000
    Si1969   Si       0.33768    0.52721    0.79636    1.000
    Si1970   Si       0.32391    0.65803    0.79908    1.000
    N1971    N        0.33245    0.69605    0.78045    1.000
    N1972    N        0.30958    0.55722    0.88473    1.000
    N1973    N        0.30143    0.57790    0.95055    1.000
    Si1974   Si       0.28490    0.61709    0.96188    1.000
    Si1975   Si       0.28756    0.51893    0.87214    1.000
    N1976    N        0.29790    0.68496    0.99523    1.000
    N1977    N        0.33048    0.71568    0.95070    1.000
    Si1978   Si       0.32723    0.72010    0.99537    1.000
    Si1979   Si       0.31910    0.67342    0.96032    1.000
    N1980    N        0.30765    0.69657    0.88856    1.000
    Si1981   Si       0.31529    0.65387    0.89544    1.000
    Si1982   Si       0.32953    0.72800    0.90936    1.000
    N1983    N        0.30017    0.64562    0.93490    1.000
    N1984    N        0.30972    0.79630    0.06570    1.000
    N1985    N        0.31142    0.85636    0.02504    1.000
    N1986    N        0.32271    0.87594    0.09387    1.000
    Si1987   Si       0.28838    0.82234    0.03486    1.000
    Si1988   Si       0.34215    0.87125    0.05306    1.000
    Si1989   Si       0.33407    0.94291    0.06201    1.000
    Si1990   Si       0.29657    0.90365    0.11333    1.000
    N1991    N        0.31285    0.94131    0.09879    1.000
    N1992    N        0.31053    0.93908    0.02604    1.000
    Si1993   Si       0.29982    0.97580    0.11907    1.000
    N1994    N        0.33912    0.79166    0.17766    1.000
    Si1995   Si       0.32457    0.82590    0.15745    1.000
    N1996    N        0.29529    0.84562    0.18957    1.000
    Si1997   Si       0.32744    0.76514    0.20833    1.000
    N1998    N        0.28828    0.81593    0.13407    1.000
    Si1999   Si       0.32281    0.88945    0.18043    1.000
    Si2000   Si       0.31393    0.93323    0.24181    1.000
    N2001    N        0.29093    0.90268    0.15553    1.000
    N2002    N        0.31649    0.89354    0.22479    1.000
    N2003    N        0.32755    0.98041    0.15170    1.000
    N2004    N        0.31434    0.77939    0.24783    1.000
    N2005    N        0.30351    0.84998    0.26428    1.000
    Si2006   Si       0.28929    0.80812    0.26538    1.000
    Si2007   Si       0.30410    0.80709    0.36508    1.000
    Si2008   Si       0.33810    0.87595    0.26358    1.000
    N2009    N        0.33483    0.75775    0.41717    1.000
    N2010    N        0.30068    0.89518    0.33687    1.000
    N2011    N        0.32303    0.91966    0.28208    1.000
    Si2012   Si       0.28826    0.99833    0.30221    1.000
    Si2013   Si       0.28399    0.91893    0.30411    1.000
    Si2014   Si       0.33832    0.90218    0.35649    1.000
    N2015    N        0.29711    0.00620    0.26091    1.000
    Si2016   Si       0.33985    0.79889    0.42837    1.000
    N2017    N        0.30736    0.81540    0.40712    1.000
    N2018    N        0.33392    0.80894    0.46865    1.000
    Si2019   Si       0.29552    0.80365    0.49246    1.000
    Si2020   Si       0.32702    0.90094    0.48983    1.000
    N2021    N        0.30280    0.91240    0.45615    1.000
    Si2022   Si       0.29124    0.99912    0.48214    1.000
    N2023    N        0.32564    0.92847    0.38918    1.000
    Si2024   Si       0.29170    0.91625    0.41399    1.000
    N2025    N        0.30039    0.00365    0.43984    1.000
    Si2026   Si       0.32329    0.84887    0.54752    1.000
    N2027    N        0.32951    0.78872    0.60867    1.000
    N2028    N        0.28850    0.82132    0.53362    1.000
    N2029    N        0.29905    0.87560    0.57274    1.000
    Si2030   Si       0.32608    0.76021    0.57838    1.000
    Si2031   Si       0.29339    0.87972    0.61515    1.000
    N2032    N        0.33881    0.86526    0.51004    1.000
    N2033    N        0.32763    0.95458    0.56967    1.000
    Si2034   Si       0.32554    0.95364    0.52703    1.000
    Si2035   Si       0.29429    0.95027    0.59866    1.000
    N2036    N        0.32223    0.99258    0.51009    1.000
    N2037    N        0.29459    0.92255    0.51778    1.000
    N2038    N        0.28654    0.99189    0.61030    1.000
    N2039    N        0.32190    0.85480    0.63340    1.000
    N2040    N        0.30240    0.85020    0.70840    1.000
    Si2041   Si       0.31489    0.78520    0.64950    1.000
    Si2042   Si       0.33244    0.85167    0.67454    1.000
    Si2043   Si       0.31061    0.82666    0.74462    1.000
    Si2044   Si       0.29105    0.75862    0.74764    1.000
    Si2045   Si       0.29492    0.93343    0.67061    1.000
    N2046    N        0.30019    0.92020    0.63005    1.000
    N2047    N        0.29156    0.97566    0.67520    1.000
    Si2048   Si       0.31097    0.99714    0.64426    1.000
    Si2049   Si       0.28917    0.89181    0.71785    1.000
    N2050    N        0.32134    0.91675    0.70015    1.000
    N2051    N        0.31021    0.84126    0.78455    1.000
    N2052    N        0.30079    0.79980    0.83641    1.000
    N2053    N        0.31514    0.76439    0.78085    1.000
    Si2054   Si       0.33283    0.82384    0.81868    1.000
    Si2055   Si       0.30730    0.75786    0.82437    1.000
    Si2056   Si       0.29990    0.88189    0.79473    1.000
    Si2057   Si       0.30476    0.99484    0.76193    1.000
    N2058    N        0.31287    0.97699    0.79976    1.000
    N2059    N        0.31102    0.95205    0.85708    1.000
    N2060    N        0.33259    0.90650    0.80975    1.000
    Si2061   Si       0.33831    0.94907    0.82235    1.000
    N2062    N        0.28437    0.90039    0.75849    1.000
    Si2063   Si       0.33557    0.96453    0.93948    1.000
    N2064    N        0.30427    0.83247    0.89639    1.000
    N2065    N        0.30099    0.76102    0.90193    1.000
    Si2066   Si       0.29305    0.88073    0.99527    1.000
    Si2067   Si       0.28429    0.86132    0.91961    1.000
    N2068    N        0.32636    0.89952    0.97433    1.000
    Si2069   Si       0.29194    0.93233    0.89111    1.000
    N2070    N        0.30657    0.89665    0.90722    1.000
    N2071    N        0.29400    0.95838    0.92636    1.000
    N2072    N        0.36499    0.08987    0.03153    1.000
    N2073    N        0.35974    0.12600    0.08606    1.000
    N2074    N        0.37057    0.01307    0.10401    1.000
    N2075    N        0.38617    0.02309    0.00066    1.000
    Si2076   Si       0.37063    0.06376    0.99546    1.000
    N2077    N        0.35227    0.22230    0.17358    1.000
    N2078    N        0.34940    0.17886    0.12357    1.000
    Si2079   Si       0.38035    0.16195    0.09708    1.000
    N2080    N        0.38241    0.19282    0.06604    1.000
    Si2081   Si       0.34712    0.20682    0.04772    1.000
    N2082    N        0.34769    0.24951    0.04104    1.000
    N2083    N        0.39554    0.15410    0.00154    1.000
    N2084    N        0.35206    0.25556    0.11081    1.000
    Si2085   Si       0.36362    0.09132    0.11870    1.000
    N2086    N        0.37676    0.06570    0.15653    1.000
    N2087    N        0.34502    0.11834    0.15289    1.000
    Si2088   Si       0.37150    0.12453    0.18884    1.000
    N2089    N        0.35248    0.09591    0.21480    1.000
    Si2090   Si       0.34448    0.06645    0.18560    1.000
    N2091    N        0.36608    0.16115    0.21133    1.000
    N2092    N        0.37321    0.03921    0.31859    1.000
    Si2093   Si       0.36098    0.12533    0.32105    1.000
    N2094    N        0.36024    0.22525    0.40260    1.000
    N2095    N        0.35429    0.13621    0.27706    1.000
    Si2096   Si       0.37801    0.16532    0.25467    1.000
    N2097    N        0.37403    0.15105    0.35394    1.000
    Si2098   Si       0.36331    0.22836    0.30012    1.000
    N2099    N        0.37872    0.20768    0.26566    1.000
    N2100    N        0.38425    0.21695    0.33646    1.000
    Si2101   Si       0.37858    0.24493    0.36944    1.000
    N2102    N        0.34729    0.10773    0.40440    1.000
    N2103    N        0.36482    0.03875    0.43589    1.000
    Si2104   Si       0.35630    0.08247    0.43878    1.000
    N2105    N        0.39401    0.09764    0.45291    1.000
    Si2106   Si       0.39900    0.02038    0.45514    1.000
    Si2107   Si       0.38009    0.13292    0.39343    1.000
    N2108    N        0.39155    0.15861    0.42812    1.000
    Si2109   Si       0.38790    0.13732    0.46834    1.000
    N2110    N        0.36373    0.19844    0.46993    1.000
    Si2111   Si       0.38331    0.20207    0.43187    1.000
    N2112    N        0.35211    0.13131    0.49243    1.000
    N2113    N        0.37744    0.07695    0.58935    1.000
    Si2114   Si       0.36275    0.11675    0.58223    1.000
    Si2115   Si       0.34743    0.05456    0.56547    1.000
    Si2116   Si       0.35821    0.01481    0.51773    1.000
    N2117    N        0.35081    0.05760    0.52123    1.000
    N2118    N        0.36395    0.01211    0.56154    1.000
    Si2119   Si       0.38532    0.18636    0.56887    1.000
    N2120    N        0.36128    0.20070    0.53206    1.000
    N2121    N        0.39229    0.14382    0.56168    1.000
    N2122    N        0.34856    0.19625    0.59165    1.000
    Si2123   Si       0.37392    0.22791    0.50044    1.000
    N2124    N        0.35641    0.13613    0.62177    1.000
    N2125    N        0.34041    0.25802    0.55610    1.000
    N2126    N        0.38480    0.01910    0.68202    1.000
    Si2127   Si       0.35481    0.04789    0.66855    1.000
    Si2128   Si       0.36960    0.11829    0.65994    1.000
    Si2129   Si       0.36572    0.02557    0.72742    1.000
    N2130    N        0.38086    0.07691    0.65276    1.000
    N2131    N        0.34256    0.05895    0.71185    1.000
    Si2132   Si       0.34495    0.22047    0.68002    1.000
    N2133    N        0.36750    0.18881    0.70111    1.000
    N2134    N        0.37443    0.23214    0.64822    1.000
    Si2135   Si       0.34364    0.15665    0.71784    1.000
    Si2136   Si       0.34239    0.17470    0.50021    1.000
    N2137    N        0.36925    0.10276    0.85789    1.000
    Si2138   Si       0.35785    0.05782    0.85557    1.000
    Si2139   Si       0.38675    0.05910    0.79334    1.000
    N2140    N        0.39180    0.04392    0.83373    1.000
    N2141    N        0.34903    0.07696    0.78819    1.000
    N2142    N        0.37341    0.22051    0.84697    1.000
    Si2143   Si       0.37666    0.24016    0.80748    1.000
    N2144    N        0.36210    0.14904    0.75794    1.000
    Si2145   Si       0.39471    0.16996    0.77924    1.000
    N2146    N        0.39035    0.15844    0.82064    1.000
    Si2147   Si       0.36524    0.24692    0.88230    1.000
    N2148    N        0.35179    0.12077    0.92236    1.000
    Si2149   Si       0.37990    0.09727    0.90175    1.000
    N2150    N        0.36276    0.05785    0.89825    1.000
    N2151    N        0.34055    0.06528    0.96431    1.000
    Si2152   Si       0.33603    0.03988    0.92972    1.000
    Si2153   Si       0.35441    0.16553    0.98562    1.000
    Si2154   Si       0.36479    0.16075    0.91164    1.000
    Si2155   Si       0.38280    0.22163    0.95125    1.000
    N2156    N        0.34682    0.24296    0.96465    1.000
    N2157    N        0.36607    0.18293    0.94802    1.000
    N2158    N        0.39691    0.23574    0.91143    1.000
    N2159    N        0.39723    0.21336    0.78124    1.000
    Si2160   Si       0.39748    0.18516    0.85405    1.000
    Si2161   Si       0.36350    0.35028    0.10589    1.000
    N2162    N        0.35600    0.35381    0.00415    1.000
    N2163    N        0.36604    0.37443    0.07121    1.000
    Si2164   Si       0.34735    0.26524    0.00155    1.000
    N2165    N        0.38628    0.28535    0.99962    1.000
    N2166    N        0.39436    0.31980    0.10336    1.000
    N2167    N        0.38095    0.44125    0.05673    1.000
    Si2168   Si       0.35464    0.46600    0.08626    1.000
    Si2169   Si       0.38842    0.44970    0.01527    1.000
    N2170    N        0.36383    0.50411    0.06000    1.000
    Si2171   Si       0.39909    0.40338    0.06833    1.000
    N2172    N        0.35548    0.49712    0.12042    1.000
    Si2173   Si       0.38399    0.28047    0.12375    1.000
    N2174    N        0.38505    0.26862    0.22623    1.000
    N2175    N        0.38348    0.34170    0.20497    1.000
    N2176    N        0.37892    0.28705    0.16644    1.000
    N2177    N        0.37058    0.37107    0.14365    1.000
    Si2178   Si       0.35045    0.35891    0.17987    1.000
    Si2179   Si       0.35735    0.26050    0.19198    1.000
    Si2180   Si       0.37107    0.47534    0.22941    1.000
    N2181    N        0.34329    0.44329    0.23332    1.000
    N2182    N        0.37988    0.46849    0.18513    1.000
    Si2183   Si       0.35384    0.46923    0.15171    1.000
    Si2184   Si       0.39316    0.40800    0.14011    1.000
    N2185    N        0.36519    0.43580    0.12323    1.000
    Si2186   Si       0.38837    0.35780    0.24587    1.000
    Si2187   Si       0.37834    0.29797    0.32408    1.000
    N2188    N        0.36440    0.33886    0.32443    1.000
    N2189    N        0.37329    0.26859    0.29372    1.000
    N2190    N        0.35242    0.27490    0.35425    1.000
    N2191    N        0.35175    0.37171    0.26147    1.000
    Si2192   Si       0.36558    0.29102    0.25840    1.000
    Si2193   Si       0.36711    0.37345    0.35368    1.000
    N2194    N        0.38941    0.45270    0.41176    1.000
    N2195    N        0.34222    0.40655    0.33989    1.000
    Si2196   Si       0.37634    0.42888    0.32956    1.000
    N2197    N        0.38199    0.42215    0.28745    1.000
    N2198    N        0.38509    0.46681    0.34569    1.000
    Si2199   Si       0.34582    0.41571    0.26428    1.000
    Si2200   Si       0.36917    0.50611    0.35595    1.000
    N2201    N        0.35435    0.26325    0.49198    1.000
    N2202    N        0.36548    0.31061    0.43653    1.000
    Si2203   Si       0.38150    0.34461    0.41378    1.000
    N2204    N        0.34882    0.35792    0.39011    1.000
    N2205    N        0.39478    0.38206    0.43391    1.000
    Si2206   Si       0.37477    0.42128    0.43916    1.000
    Si2207   Si       0.38868    0.48219    0.49111    1.000
    N2208    N        0.38102    0.44056    0.47852    1.000
    Si2209   Si       0.37957    0.49409    0.42637    1.000
    Si2210   Si       0.36587    0.29167    0.56602    1.000
    N2211    N        0.36375    0.29572    0.60913    1.000
    N2212    N        0.36003    0.37824    0.57016    1.000
    N2213    N        0.34877    0.31802    0.53864    1.000
    N2214    N        0.33881    0.39628    0.69284    1.000
    Si2215   Si       0.37121    0.41691    0.51352    1.000
    N2216    N        0.35306    0.44508    0.54100    1.000
    Si2217   Si       0.38801    0.46496    0.55851    1.000
    N2218    N        0.37888    0.50169    0.57994    1.000
    Si2219   Si       0.34400    0.38740    0.61143    1.000
    N2220    N        0.35350    0.50620    0.49636    1.000
    N2221    N        0.34452    0.38299    0.50471    1.000
    N2222    N        0.37166    0.41071    0.63751    1.000
    Si2223   Si       0.34292    0.50539    0.60430    1.000
    N2224    N        0.36681    0.29498    0.67119    1.000
    Si2225   Si       0.38566    0.27436    0.63863    1.000
    N2226    N        0.38200    0.26331    0.73426    1.000
    Si2227   Si       0.38783    0.30016    0.70965    1.000
    N2228    N        0.37115    0.33040    0.73651    1.000
    Si2229   Si       0.38604    0.44934    0.62633    1.000
    Si2230   Si       0.37948    0.40307    0.67919    1.000
    N2231    N        0.35626    0.47759    0.63754    1.000
    Si2232   Si       0.38666    0.30601    0.84185    1.000
    N2233    N        0.35718    0.32851    0.81925    1.000
    N2234    N        0.39530    0.46849    0.75047    1.000
    Si2235   Si       0.36884    0.42279    0.84339    1.000
    N2236    N        0.36371    0.46621    0.84247    1.000
    N2237    N        0.35328    0.39512    0.81298    1.000
    Si2238   Si       0.34673    0.39790    0.77032    1.000
    N2239    N        0.38461    0.39647    0.75208    1.000
    Si2240   Si       0.35367    0.31998    0.90554    1.000
    N2241    N        0.36569    0.28920    0.87733    1.000
    N2242    N        0.38050    0.35524    0.90517    1.000
    Si2243   Si       0.37728    0.32357    0.98190    1.000
    N2244    N        0.35087    0.31479    0.94785    1.000
    N2245    N        0.34569    0.41826    0.88370    1.000
    Si2246   Si       0.34999    0.48704    0.95208    1.000
    Si2247   Si       0.34595    0.38058    0.90626    1.000
    Si2248   Si       0.34672    0.39279    0.98746    1.000
    N2249    N        0.36754    0.48088    0.99198    1.000
    Si2250   Si       0.37926    0.48725    0.87717    1.000
    N2251    N        0.37958    0.47261    0.91976    1.000
    N2252    N        0.38418    0.41229    0.99012    1.000
    Si2253   Si       0.35145    0.46721    0.74349    1.000
    Si2254   Si       0.37154    0.52869    0.09435    1.000
    Si2255   Si       0.36359    0.51684    0.01739    1.000
    Si2256   Si       0.36435    0.59678    0.11441    1.000
    N2257    N        0.39456    0.60818    0.08550    1.000
    N2258    N        0.34614    0.56301    0.09522    1.000
    Si2259   Si       0.35297    0.62539    0.99913    1.000
    N2260    N        0.37035    0.64067    0.03593    1.000
    N2261    N        0.35738    0.70755    0.02169    1.000
    Si2262   Si       0.35500    0.67679    0.05167    1.000
    N2263    N        0.37585    0.69749    0.08541    1.000
    Si2264   Si       0.38378    0.74266    0.02979    1.000
    Si2265   Si       0.35258    0.71925    0.11639    1.000
    N2266    N        0.38487    0.57924    0.14748    1.000
    Si2267   Si       0.37266    0.58385    0.18853    1.000
    N2268    N        0.36380    0.62489    0.18424    1.000
    N2269    N        0.37447    0.68250    0.21083    1.000
    N2270    N        0.37877    0.74589    0.14150    1.000
    Si2271   Si       0.37787    0.71373    0.18029    1.000
    N2272    N        0.36155    0.73972    0.21315    1.000
    Si2273   Si       0.35605    0.70624    0.24261    1.000
    Si2274   Si       0.39041    0.64355    0.21435    1.000
    N2275    N        0.34452    0.69472    0.15289    1.000
    N2276    N        0.37537    0.53889    0.33018    1.000
    N2277    N        0.37046    0.60188    0.33277    1.000
    N2278    N        0.38235    0.62606    0.25346    1.000
    Si2279   Si       0.34710    0.56865    0.31911    1.000
    N2280    N        0.35937    0.51008    0.24694    1.000
    Si2281   Si       0.35106    0.63981    0.33302    1.000
    N2282    N        0.38651    0.71181    0.27299    1.000
    N2283    N        0.37780    0.67499    0.33663    1.000
    N2284    N        0.36857    0.73491    0.35435    1.000
    Si2285   Si       0.34960    0.69481    0.36800    1.000
    Si2286   Si       0.37795    0.59826    0.44918    1.000
    N2287    N        0.36746    0.57915    0.48738    1.000
    N2288    N        0.39312    0.51929    0.39339    1.000
    N2289    N        0.35737    0.62689    0.42658    1.000
    N2290    N        0.35253    0.74195    0.47977    1.000
    N2291    N        0.36086    0.69447    0.40996    1.000
    Si2292   Si       0.38367    0.66233    0.43001    1.000
    N2293    N        0.39168    0.68869    0.46606    1.000
    Si2294   Si       0.36179    0.72904    0.43719    1.000
    Si2295   Si       0.35316    0.54706    0.51471    1.000
    Si2296   Si       0.36853    0.57887    0.60990    1.000
    N2297    N        0.35122    0.60124    0.57449    1.000
    N2298    N        0.39091    0.55051    0.53540    1.000
    Si2299   Si       0.37951    0.63054    0.55918    1.000
    N2300    N        0.39526    0.64486    0.59703    1.000
    N2301    N        0.36477    0.65620    0.52859    1.000
    Si2302   Si       0.36149    0.71815    0.55323    1.000
    Si2303   Si       0.39884    0.65874    0.49769    1.000
    Si2304   Si       0.40094    0.57765    0.71952    1.000
    Si2305   Si       0.35943    0.63800    0.74357    1.000
    Si2306   Si       0.34559    0.59512    0.68109    1.000
    N2307    N        0.38195    0.53828    0.72974    1.000
    N2308    N        0.36626    0.60551    0.64357    1.000
    N2309    N        0.36892    0.60705    0.71392    1.000
    Si2310   Si       0.34942    0.71469    0.63415    1.000
    Si2311   Si       0.37864    0.64740    0.63698    1.000
    N2312    N        0.38890    0.75697    0.70021    1.000
    N2313    N        0.39204    0.72374    0.63688    1.000
    N2314    N        0.34560    0.67387    0.64712    1.000
    N2315    N        0.37729    0.54050    0.80552    1.000
    N2316    N        0.36055    0.58861    0.85225    1.000
    Si2317   Si       0.39464    0.56002    0.84942    1.000
    Si2318   Si       0.37250    0.63046    0.85719    1.000
    N2319    N        0.38021    0.74370    0.76922    1.000
    Si2320   Si       0.36416    0.71797    0.79975    1.000
    N2321    N        0.35713    0.65633    0.82648    1.000
    N2322    N        0.39406    0.65125    0.76812    1.000
    N2323    N        0.34559    0.73936    0.83433    1.000
    Si2324   Si       0.39812    0.66135    0.81023    1.000
    N2325    N        0.37249    0.52863    0.87341    1.000
    N2326    N        0.36621    0.58104    0.92589    1.000
    Si2327   Si       0.34761    0.54910    0.90230    1.000
    N2328    N        0.36739    0.58658    0.98961    1.000
    N2329    N        0.34331    0.52671    0.93865    1.000
    Si2330   Si       0.34006    0.56296    0.96488    1.000
    N2331    N        0.37078    0.73321    0.89506    1.000
    N2332    N        0.35869    0.65307    0.96594    1.000
    N2333    N        0.35887    0.65035    0.89401    1.000
    Si2334   Si       0.38289    0.65339    0.93084    1.000
    N2335    N        0.40313    0.70281    0.81631    1.000
    N2336    N        0.36920    0.83965    0.06328    1.000
    N2337    N        0.36473    0.76438    0.06288    1.000
    Si2338   Si       0.35198    0.80309    0.07557    1.000
    Si2339   Si       0.35582    0.85685    0.11451    1.000
    N2340    N        0.39375    0.87764    0.10674    1.000
    N2341    N        0.35119    0.81203    0.11786    1.000
    N2342    N        0.35865    0.97820    0.05332    1.000
    N2343    N        0.35896    0.90961    0.04363    1.000
    Si2344   Si       0.39232    0.97697    0.08252    1.000
    Si2345   Si       0.35208    0.99977    0.01450    1.000
    N2346    N        0.38999    0.95072    0.12251    1.000
    Si2347   Si       0.34848    0.92766    0.99992    1.000
    N2348    N        0.34855    0.96032    0.23099    1.000
    N2349    N        0.34906    0.86207    0.15624    1.000
    Si2350   Si       0.37015    0.78627    0.14772    1.000
    Si2351   Si       0.36494    0.95851    0.15800    1.000
    Si2352   Si       0.36794    0.99759    0.22299    1.000
    N2353    N        0.38605    0.98498    0.18470    1.000
    N2354    N        0.36092    0.91806    0.18160    1.000
    Si2355   Si       0.37498    0.92863    0.22195    1.000
    Si2356   Si       0.38770    0.88414    0.17285    1.000
    N2357    N        0.38272    0.77796    0.30008    1.000
    N2358    N        0.36717    0.84596    0.27373    1.000
    Si2359   Si       0.35126    0.76242    0.32654    1.000
    Si2360   Si       0.38014    0.81155    0.36725    1.000
    Si2361   Si       0.39161    0.82034    0.29794    1.000
    N2362    N        0.34180    0.79779    0.35066    1.000
    N2363    N        0.39520    0.83910    0.33596    1.000
    N2364    N        0.37445    0.90311    0.25602    1.000
    Si2365   Si       0.36576    0.92989    0.29317    1.000
    N2366    N        0.37344    0.90687    0.33010    1.000
    N2367    N        0.36250    0.97175    0.31234    1.000
    Si2368   Si       0.35211    0.00564    0.33792    1.000
    N2369    N        0.40003    0.00219    0.25195    1.000
    Si2370   Si       0.35755    0.95781    0.39583    1.000
    Si2371   Si       0.36148    0.83902    0.48360    1.000
    N2372    N        0.37730    0.81411    0.41274    1.000
    N2373    N        0.38057    0.86907    0.45696    1.000
    Si2374   Si       0.37930    0.85814    0.41520    1.000
    N2375    N        0.35841    0.87351    0.38104    1.000
    Si2376   Si       0.38322    0.95356    0.47438    1.000
    N2377    N        0.39596    0.95472    0.37483    1.000
    N2378    N        0.38422    0.99417    0.48694    1.000
    N2379    N        0.38009    0.94852    0.43260    1.000
    N2380    N        0.34482    0.99774    0.38015    1.000
    Si2381   Si       0.39807    0.87772    0.35595    1.000
    N2382    N        0.35964    0.83966    0.57128    1.000
    Si2383   Si       0.37558    0.76886    0.50556    1.000
    Si2384   Si       0.34905    0.82695    0.61198    1.000
    N2385    N        0.39023    0.80994    0.50141    1.000
    Si2386   Si       0.35869    0.97845    0.58781    1.000
    N2387    N        0.35396    0.93476    0.49887    1.000
    N2388    N        0.39461    0.95850    0.60115    1.000
    N2389    N        0.38944    0.83090    0.62605    1.000
    N2390    N        0.34597    0.80271    0.73837    1.000
    N2391    N        0.36996    0.87267    0.68181    1.000
    Si2392   Si       0.37162    0.79615    0.70224    1.000
    N2393    N        0.34314    0.80961    0.67320    1.000
    N2394    N        0.38449    0.93870    0.67637    1.000
    Si2395   Si       0.38805    0.96752    0.64370    1.000
    Si2396   Si       0.36353    0.91060    0.70136    1.000
    N2397    N        0.34952    0.98548    0.63212    1.000
    N2398    N        0.38141    0.91897    0.74101    1.000
    N2399    N        0.35344    0.76174    0.54282    1.000
    N2400    N        0.36653    0.80460    0.80423    1.000
    Si2401   Si       0.35388    0.77924    0.77260    1.000
    N2402    N        0.38762    0.86945    0.78990    1.000
    N2403    N        0.34881    0.85423    0.84685    1.000
    Si2404   Si       0.36900    0.76155    0.86312    1.000
    Si2405   Si       0.36664    0.88490    0.82477    1.000
    N2406    N        0.37827    0.95527    0.80130    1.000
    Si2407   Si       0.37505    0.96099    0.75613    1.000
    N2408    N        0.39471    0.91187    0.84917    1.000
    N2409    N        0.34474    0.99069    0.74417    1.000
    N2410    N        0.36796    0.80162    0.88069    1.000
    N2411    N        0.36251    0.86061    0.91884    1.000
    Si2412   Si       0.34605    0.83808    0.88699    1.000
    N2413    N        0.38146    0.76455    0.99231    1.000
    N2414    N        0.39409    0.92211    0.99237    1.000
    Si2415   Si       0.39684    0.98195    0.91372    1.000
    N2416    N        0.36443    0.93342    0.93004    1.000
    N2417    N        0.35330    0.99930    0.92047    1.000
    Si2418   Si       0.34252    0.89674    0.93186    1.000
    N2419    N        0.34402    0.96944    0.98219    1.000
    N2420    N        0.43270    0.11483    0.04500    1.000
    Si2421   Si       0.42973    0.10585    0.08778    1.000
    Si2422   Si       0.40865    0.03533    0.10681    1.000
    Si2423   Si       0.45200    0.17575    0.23930    1.000
    N2424    N        0.41837    0.14342    0.10809    1.000
    N2425    N        0.43778    0.24917    0.04350    1.000
    N2426    N        0.43960    0.20275    0.10121    1.000
    Si2427   Si       0.42336    0.21150    0.06356    1.000
    N2428    N        0.44241    0.18506    0.03375    1.000
    Si2429   Si       0.45472    0.16559    0.11575    1.000
    Si2430   Si       0.42858    0.18211    0.99304    1.000
    Si2431   Si       0.45715    0.12948    0.18272    1.000
    Si2432   Si       0.41991    0.07310    0.17097    1.000
    N2433    N        0.41513    0.11817    0.18346    1.000
    N2434    N        0.41896    0.04239    0.20409    1.000
    N2435    N        0.43278    0.03422    0.14393    1.000
    Si2436   Si       0.43272    0.03099    0.24399    1.000
    Si2437   Si       0.42430    0.00732    0.17733    1.000
    Si2438   Si       0.45329    0.23886    0.12216    1.000
    N2439    N        0.43681    0.21354    0.22169    1.000
    N2440    N        0.39908    0.07613    0.09825    1.000
    Si2441   Si       0.39878    0.11479    0.01999    1.000
    N2442    N        0.43253    0.05911    0.27721    1.000
    N2443    N        0.43432    0.06378    0.34679    1.000
    Si2444   Si       0.40727    0.06554    0.31162    1.000
    Si2445   Si       0.42966    0.13175    0.29951    1.000
    Si2446   Si       0.45488    0.02547    0.34020    1.000
    Si2447   Si       0.40469    0.18090    0.34774    1.000
    N2448    N        0.43692    0.16799    0.32224    1.000
    N2449    N        0.41995    0.15265    0.26174    1.000
    N2450    N        0.39813    0.10664    0.31227    1.000
    Si2451   Si       0.40849    0.23507    0.24624    1.000
    Si2452   Si       0.44954    0.08649    0.38102    1.000
    N2453    N        0.42187    0.12111    0.38872    1.000
    N2454    N        0.43096    0.04208    0.47623    1.000
    N2455    N        0.44479    0.06169    0.41512    1.000
    Si2456   Si       0.43495    0.07780    0.45229    1.000
    Si2457   Si       0.44229    0.24343    0.47116    1.000
    Si2458   Si       0.43321    0.15845    0.40907    1.000
    Si2459   Si       0.45960    0.02054    0.41895    1.000
    Si2460   Si       0.43703    0.22986    0.39897    1.000
    N2461    N        0.41997    0.22576    0.43900    1.000
    N2462    N        0.42384    0.19169    0.38348    1.000
    N2463    N        0.44249    0.09732    0.60931    1.000
    N2464    N        0.45136    0.10278    0.53381    1.000
    Si2465   Si       0.40917    0.07098    0.61746    1.000
    Si2466   Si       0.42729    0.14040    0.53415    1.000
    N2467    N        0.41857    0.20744    0.58887    1.000
    N2468    N        0.41651    0.22703    0.50686    1.000
    N2469    N        0.45042    0.17679    0.54240    1.000
    Si2470   Si       0.44216    0.19147    0.50246    1.000
    N2471    N        0.43289    0.19810    0.65710    1.000
    N2472    N        0.43358    0.03643    0.63054    1.000
    Si2473   Si       0.42776    0.02155    0.67109    1.000
    N2474    N        0.43790    0.09678    0.73061    1.000
    Si2475   Si       0.43965    0.12041    0.69441    1.000
    N2476    N        0.45023    0.03181    0.70964    1.000
    Si2477   Si       0.43178    0.01362    0.74617    1.000
    Si2478   Si       0.45634    0.17788    0.73783    1.000
    Si2479   Si       0.40805    0.18157    0.68881    1.000
    Si2480   Si       0.41271    0.22313    0.62716    1.000
    N2481    N        0.42816    0.20505    0.72173    1.000
    N2482    N        0.40340    0.13778    0.67864    1.000
    N2483    N        0.41577    0.15678    0.49377    1.000
    Si2484   Si       0.43976    0.11386    0.77005    1.000
    Si2485   Si       0.42082    0.01801    0.84934    1.000
    N2486    N        0.40896    0.09682    0.79380    1.000
    N2487    N        0.43831    0.12220    0.85174    1.000
    Si2488   Si       0.39945    0.11778    0.83056    1.000
    N2489    N        0.39504    0.03459    0.75838    1.000
    N2490    N        0.43200    0.15507    0.76528    1.000
    N2491    N        0.43895    0.20166    0.85909    1.000
    Si2492   Si       0.41525    0.23905    0.74808    1.000
    N2493    N        0.41327    0.22250    0.98251    1.000
    Si2494   Si       0.43273    0.22882    0.89217    1.000
    N2495    N        0.40787    0.08832    0.98824    1.000
    N2496    N        0.42116    0.10332    0.91887    1.000
    Si2497   Si       0.43266    0.08230    0.95435    1.000
    N2498    N        0.43531    0.03737    0.95637    1.000
    Si2499   Si       0.45413    0.02288    0.91786    1.000
    N2500    N        0.42083    0.01310    0.89311    1.000
    N2501    N        0.40060    0.16230    0.89205    1.000
    Si2502   Si       0.43525    0.13429    0.89401    1.000
    Si2503   Si       0.43635    0.30999    0.10730    1.000
    N2504    N        0.45820    0.31283    0.07060    1.000
    Si2505   Si       0.42371    0.25973    0.00356    1.000
    Si2506   Si       0.43061    0.50182    0.99485    1.000
    N2507    N        0.42860    0.39914    0.03582    1.000
    N2508    N        0.42134    0.40443    0.10558    1.000
    N2509    N        0.43003    0.46243    0.01418    1.000
    Si2510   Si       0.45560    0.42658    0.01406    1.000
    Si2511   Si       0.40245    0.30296    0.19787    1.000
    N2512    N        0.42524    0.26975    0.12141    1.000
    N2513    N        0.44348    0.28670    0.19510    1.000
    N2514    N        0.45329    0.47258    0.18731    1.000
    N2515    N        0.41601    0.45896    0.24051    1.000
    Si2516   Si       0.41827    0.45066    0.19631    1.000
    N2517    N        0.41999    0.41187    0.17743    1.000
    Si2518   Si       0.45731    0.39362    0.18805    1.000
    N2519    N        0.42263    0.30063    0.32582    1.000
    Si2520   Si       0.43382    0.29826    0.28328    1.000
    Si2521   Si       0.43445    0.37708    0.36870    1.000
    Si2522   Si       0.42944    0.29909    0.36722    1.000
    N2523    N        0.42516    0.38185    0.25442    1.000
    N2524    N        0.44183    0.49911    0.29695    1.000
    Si2525   Si       0.42064    0.42285    0.26978    1.000
    Si2526   Si       0.44722    0.49028    0.25334    1.000
    N2527    N        0.44753    0.46189    0.36314    1.000
    N2528    N        0.45610    0.42949    0.29867    1.000
    N2529    N        0.40044    0.40489    0.35768    1.000
    Si2530   Si       0.45298    0.32116    0.48369    1.000
    N2531    N        0.41446    0.33838    0.38269    1.000
    N2532    N        0.41474    0.26357    0.38415    1.000
    Si2533   Si       0.43884    0.37698    0.43933    1.000
    N2534    N        0.45157    0.33539    0.44245    1.000
    N2535    N        0.44332    0.28027    0.49333    1.000
    Si2536   Si       0.41140    0.44611    0.37509    1.000
    N2537    N        0.40659    0.50252    0.45900    1.000
    N2538    N        0.45689    0.39843    0.47142    1.000
    N2539    N        0.45287    0.39350    0.40341    1.000
    N2540    N        0.40057    0.32038    0.26422    1.000
    N2541    N        0.43769    0.25585    0.26922    1.000
    Si2542   Si       0.42954    0.32955    0.55119    1.000
    N2543    N        0.42836    0.36177    0.58054    1.000
    N2544    N        0.43258    0.34665    0.51095    1.000
    Si2545   Si       0.43141    0.26148    0.53106    1.000
    N2546    N        0.40956    0.29148    0.55345    1.000
    Si2547   Si       0.44698    0.38843    0.51248    1.000
    N2548    N        0.41481    0.47643    0.52573    1.000
    N2549    N        0.40905    0.40547    0.52840    1.000
    Si2550   Si       0.45701    0.48884    0.53298    1.000
    Si2551   Si       0.43598    0.34763    0.67729    1.000
    N2552    N        0.42917    0.31011    0.70120    1.000
    N2553    N        0.45022    0.32853    0.64143    1.000
    N2554    N        0.42532    0.26482    0.62726    1.000
    N2555    N        0.40140    0.36831    0.69144    1.000
    Si2556   Si       0.40144    0.36218    0.73553    1.000
    Si2557   Si       0.43355    0.46014    0.68238    1.000
    N2558    N        0.40473    0.43423    0.69816    1.000
    Si2559   Si       0.41228    0.42986    0.74268    1.000
    Si2560   Si       0.40016    0.39373    0.56978    1.000
    N2561    N        0.43337    0.50111    0.69674    1.000
    N2562    N        0.42193    0.46453    0.64147    1.000
    Si2563   Si       0.45989    0.28515    0.64404    1.000
    N2564    N        0.40017    0.43410    0.58633    1.000
    N2565    N        0.41855    0.33108    0.85692    1.000
    Si2566   Si       0.44158    0.26472    0.83015    1.000
    N2567    N        0.44096    0.35739    0.75164    1.000
    N2568    N        0.44770    0.26561    0.74998    1.000
    N2569    N        0.40113    0.27194    0.82124    1.000
    Si2570   Si       0.44906    0.39803    0.85895    1.000
    Si2571   Si       0.43984    0.45832    0.84656    1.000
    N2572    N        0.41415    0.42203    0.84744    1.000
    N2573    N        0.44792    0.42215    0.76734    1.000
    N2574    N        0.45541    0.48126    0.81403    1.000
    N2575    N        0.44679    0.26579    0.87342    1.000
    Si2576   Si       0.44930    0.32149    0.96180    1.000
    N2577    N        0.43714    0.31285    0.92160    1.000
    N2578    N        0.41566    0.34304    0.97872    1.000
    Si2579   Si       0.42082    0.34472    0.89797    1.000
    N2580    N        0.45286    0.28044    0.97850    1.000
    N2581    N        0.45017    0.37721    0.89697    1.000
    N2582    N        0.45193    0.40161    0.97673    1.000
    N2583    N        0.42374    0.48205    0.87803    1.000
    N2584    N        0.45045    0.43771    0.92165    1.000
    N2585    N        0.44100    0.49469    0.95232    1.000
    Si2586   Si       0.42412    0.47219    0.92078    1.000
    Si2587   Si       0.41767    0.38322    0.99486    1.000
    N2588    N        0.42780    0.60726    0.01367    1.000
    N2589    N        0.41374    0.53128    0.10148    1.000
    Si2590   Si       0.41048    0.62771    0.05133    1.000
    Si2591   Si       0.45720    0.53006    0.09590    1.000
    N2592    N        0.40356    0.53304    0.00966    1.000
    N2593    N        0.42249    0.73264    0.04378    1.000
    Si2594   Si       0.41735    0.70266    0.07449    1.000
    N2595    N        0.42935    0.66638    0.05387    1.000
    N2596    N        0.43745    0.71354    0.11169    1.000
    N2597    N        0.40457    0.57957    0.21666    1.000
    Si2598   Si       0.42004    0.55585    0.13768    1.000
    N2599    N        0.43111    0.53562    0.17276    1.000
    Si2600   Si       0.43917    0.55682    0.20965    1.000
    Si2601   Si       0.45809    0.74406    0.02263    1.000
    N2602    N        0.42226    0.71652    0.17789    1.000
    Si2603   Si       0.42426    0.74202    0.14089    1.000
    N2604    N        0.43212    0.64680    0.20384    1.000
    Si2605   Si       0.45069    0.68696    0.19549    1.000
    Si2606   Si       0.40980    0.57455    0.99298    1.000
    N2607    N        0.41993    0.57150    0.29079    1.000
    N2608    N        0.43612    0.56413    0.35925    1.000
    Si2609   Si       0.41301    0.59695    0.25662    1.000
    Si2610   Si       0.45046    0.54054    0.28756    1.000
    N2611    N        0.45150    0.61658    0.25744    1.000
    Si2612   Si       0.40428    0.57178    0.33082    1.000
    Si2613   Si       0.40320    0.69057    0.30575    1.000
    Si2614   Si       0.41163    0.74156    0.35849    1.000
    N2615    N        0.42874    0.73049    0.31944    1.000
    N2616    N        0.44271    0.67277    0.29950    1.000
    Si2617   Si       0.40963    0.74875    0.28186    1.000
    N2618    N        0.40686    0.62575    0.47154    1.000
    Si2619   Si       0.42554    0.54867    0.39982    1.000
    Si2620   Si       0.44292    0.52619    0.46655    1.000
    Si2621   Si       0.43377    0.61706    0.43588    1.000
    N2622    N        0.44160    0.56503    0.48722    1.000
    N2623    N        0.40993    0.58383    0.42070    1.000
    Si2624   Si       0.44837    0.69065    0.41523    1.000
    N2625    N        0.42367    0.65390    0.41735    1.000
    Si2626   Si       0.41784    0.72562    0.46590    1.000
    N2627    N        0.43305    0.71338    0.38314    1.000
    N2628    N        0.45587    0.71339    0.45140    1.000
    N2629    N        0.40050    0.75294    0.43571    1.000
    N2630    N        0.46021    0.53711    0.42623    1.000
    N2631    N        0.44478    0.53068    0.24228    1.000
    N2632    N        0.41214    0.61290    0.53666    1.000
    Si2633   Si       0.40779    0.58210    0.50821    1.000
    N2634    N        0.44682    0.51672    0.56573    1.000
    N2635    N        0.40877    0.56109    0.60371    1.000
    Si2636   Si       0.40642    0.53313    0.57066    1.000
    Si2637   Si       0.44779    0.63775    0.53457    1.000
    Si2638   Si       0.42436    0.72305    0.60562    1.000
    Si2639   Si       0.43109    0.71920    0.53303    1.000
    N2640    N        0.43211    0.67653    0.52080    1.000
    N2641    N        0.41370    0.74483    0.50442    1.000
    Si2642   Si       0.43611    0.64941    0.61273    1.000
    N2643    N        0.45294    0.69101    0.60776    1.000
    N2644    N        0.40216    0.72029    0.56497    1.000
    N2645    N        0.45062    0.75902    0.60535    1.000
    N2646    N        0.42622    0.57043    0.68462    1.000
    Si2647   Si       0.43577    0.57663    0.63982    1.000
    Si2648   Si       0.45426    0.53595    0.68282    1.000
    N2649    N        0.45621    0.61183    0.62933    1.000
    N2650    N        0.44916    0.63776    0.71893    1.000
    Si2651   Si       0.41320    0.73217    0.67328    1.000
    Si2652   Si       0.41073    0.50645    0.73341    1.000
    N2653    N        0.45555    0.74070    0.67144    1.000
    Si2654   Si       0.40428    0.73254    0.73493    1.000
    N2655    N        0.41794    0.65599    0.65305    1.000
    Si2656   Si       0.43785    0.66781    0.68920    1.000
    N2657    N        0.41566    0.70129    0.70643    1.000
    N2658    N        0.43422    0.56259    0.81914    1.000
    N2659    N        0.43622    0.52342    0.76292    1.000
    Si2660   Si       0.44598    0.60906    0.82145    1.000
    N2661    N        0.41849    0.58800    0.75869    1.000
    Si2662   Si       0.41206    0.55362    0.78350    1.000
    Si2663   Si       0.43016    0.63001    0.75664    1.000
    N2664    N        0.41356    0.63276    0.83840    1.000
    Si2665   Si       0.43147    0.73116    0.83563    1.000
    Si2666   Si       0.41382    0.72362    0.90669    1.000
    N2667    N        0.45778    0.63597    0.78965    1.000
    N2668    N        0.43219    0.57004    0.95485    1.000
    N2669    N        0.42187    0.57144    0.88360    1.000
    Si2670   Si       0.40851    0.58559    0.92148    1.000
    N2671    N        0.41634    0.62864    0.92528    1.000
    N2672    N        0.46142    0.65928    0.97386    1.000
    N2673    N        0.43336    0.75752    0.92479    1.000
    Si2674   Si       0.44532    0.65960    0.93353    1.000
    N2675    N        0.41298    0.68839    0.93237    1.000
    N2676    N        0.44291    0.71272    0.87324    1.000
    N2677    N        0.44339    0.74739    0.74592    1.000
    N2678    N        0.42762    0.81030    0.02205    1.000
    N2679    N        0.43578    0.82301    0.08776    1.000
    Si2680   Si       0.42199    0.84772    0.00279    1.000
    Si2681   Si       0.40809    0.85352    0.07374    1.000
    N2682    N        0.42030    0.87607    0.03966    1.000
    Si2683   Si       0.45809    0.81149    0.05168    1.000
    N2684    N        0.41492    0.94272    0.06615    1.000
    N2685    N        0.45159    0.98548    0.00913    1.000
    Si2686   Si       0.41220    0.91558    0.11503    1.000
    N2687    N        0.45452    0.91031    0.10369    1.000
    Si2688   Si       0.45702    0.99684    0.05193    1.000
    N2689    N        0.42281    0.90578    0.15852    1.000
    N2690    N        0.42286    0.00760    0.07697    1.000
    Si2691   Si       0.43646    0.81483    0.12902    1.000
    N2692    N        0.45139    0.77497    0.13401    1.000
    Si2693   Si       0.42513    0.83145    0.18864    1.000
    N2694    N        0.40425    0.80962    0.15920    1.000
    N2695    N        0.45387    0.84643    0.15459    1.000
    N2696    N        0.45414    0.97449    0.18422    1.000
    N2697    N        0.41762    0.93141    0.21978    1.000
    Si2698   Si       0.44423    0.93191    0.18638    1.000
    Si2699   Si       0.40179    0.91557    0.03508    1.000
    N2700    N        0.40010    0.86004    0.20826    1.000
    N2701    N        0.42667    0.82712    0.27125    1.000
    N2702    N        0.44258    0.76275    0.25546    1.000
    Si2703   Si       0.40359    0.86765    0.25207    1.000
    N2704    N        0.42407    0.00042    0.42773    1.000
    N2705    N        0.44229    0.88699    0.26623    1.000
    Si2706   Si       0.40601    0.94041    0.33560    1.000
    Si2707   Si       0.43776    0.92961    0.25951    1.000
    N2708    N        0.43231    0.90599    0.34520    1.000
    N2709    N        0.41204    0.94619    0.29079    1.000
    N2710    N        0.42592    0.99889    0.32400    1.000
    N2711    N        0.44815    0.87648    0.45177    1.000
    N2712    N        0.41141    0.78112    0.37334    1.000
    Si2713   Si       0.41389    0.78736    0.41550    1.000
    N2714    N        0.41659    0.86198    0.39249    1.000
    N2715    N        0.44697    0.81083    0.43619    1.000
    Si2716   Si       0.44991    0.84930    0.41510    1.000
    N2717    N        0.41917    0.93059    0.48340    1.000
    Si2718   Si       0.41397    0.88612    0.47809    1.000
    Si2719   Si       0.41640    0.95968    0.41168    1.000
    Si2720   Si       0.45573    0.80357    0.25137    1.000
    N2721    N        0.45629    0.94172    0.42076    1.000
    Si2722   Si       0.39996    0.98713    0.29304    1.000
    Si2723   Si       0.42572    0.82508    0.51927    1.000
    N2724    N        0.42652    0.80974    0.55991    1.000
    N2725    N        0.42131    0.86849    0.51718    1.000
    N2726    N        0.43069    0.86951    0.58655    1.000
    Si2727   Si       0.40192    0.83673    0.58401    1.000
    Si2728   Si       0.45785    0.77845    0.56663    1.000
    Si2729   Si       0.44521    0.88663    0.54982    1.000
    N2730    N        0.44162    0.93179    0.55225    1.000
    Si2731   Si       0.43479    0.94814    0.59054    1.000
    Si2732   Si       0.44751    0.94827    0.51099    1.000
    Si2733   Si       0.45393    0.88226    0.61958    1.000
    N2734    N        0.40602    0.82046    0.69859    1.000
    N2735    N        0.44345    0.86172    0.65959    1.000
    Si2736   Si       0.43786    0.82941    0.72572    1.000
    N2737    N        0.43639    0.87364    0.73571    1.000
    Si2738   Si       0.40231    0.84993    0.66259    1.000
    N2739    N        0.43065    0.97684    0.66215    1.000
    N2740    N        0.45118    0.93126    0.69825    1.000
    N2741    N        0.41006    0.97739    0.73550    1.000
    N2742    N        0.45185    0.92464    0.62192    1.000
    Si2743   Si       0.41762    0.95541    0.69923    1.000
    N2744    N        0.42449    0.82867    0.83611    1.000
    N2745    N        0.42992    0.81052    0.76635    1.000
    N2746    N        0.41129    0.76658    0.85334    1.000
    Si2747   Si       0.40360    0.82779    0.79756    1.000
    Si2748   Si       0.45532    0.77476    0.77593    1.000
    Si2749   Si       0.41025    0.80581    0.87021    1.000
    N2750    N        0.43637    0.91851    0.79151    1.000
    N2751    N        0.43231    0.97984    0.83017    1.000
    Si2752   Si       0.41307    0.94134    0.82108    1.000
    Si2753   Si       0.41134    0.89489    0.76327    1.000
    N2754    N        0.45559    0.89003    0.86509    1.000
    N2755    N        0.42812    0.82635    0.90503    1.000
    Si2756   Si       0.41598    0.78675    0.98279    1.000
    N2757    N        0.45291    0.76274    0.98571    1.000
    N2758    N        0.40469    0.82667    0.96854    1.000
    Si2759   Si       0.40321    0.84950    0.93258    1.000
    N2760    N        0.45332    0.87129    0.98649    1.000
    N2761    N        0.41118    0.97444    0.95376    1.000
    N2762    N        0.41936    0.89095    0.93013    1.000
    Si2763   Si       0.42184    0.90740    0.88383    1.000
    Si2764   Si       0.40523    0.93083    0.95023    1.000
    N2765    N        0.42798    0.94577    0.90175    1.000
    Si2766   Si       0.42110    0.00594    0.98217    1.000
    N2767    N        0.48012    0.03485    0.05328    1.000
    Si2768   Si       0.50289    0.10921    0.10246    1.000
    N2769    N        0.46578    0.08620    0.10384    1.000
    N2770    N        0.49468    0.14517    0.02367    1.000
    N2771    N        0.47997    0.14893    0.08484    1.000
    N2772    N        0.48460    0.24961    0.09216    1.000
    N2773    N        0.46312    0.08586    0.17115    1.000
    Si2774   Si       0.47713    0.05952    0.13955    1.000
    N2775    N        0.49669    0.01968    0.14212    1.000
    Si2776   Si       0.50696    0.11681    0.23623    1.000
    N2777    N        0.47309    0.01763    0.23658    1.000
    Si2778   Si       0.51181    0.03939    0.23429    1.000
    N2779    N        0.47268    0.14261    0.22068    1.000
    Si2780   Si       0.49434    0.19663    0.16024    1.000
    N2781    N        0.49473    0.24859    0.22755    1.000
    N2782    N        0.46922    0.23151    0.16187    1.000
    N2783    N        0.47288    0.15960    0.15352    1.000
    Si2784   Si       0.45869    0.14769    0.04639    1.000
    Si2785   Si       0.45979    0.24615    0.20156    1.000
    N2786    N        0.48599    0.04010    0.31286    1.000
    Si2787   Si       0.47502    0.07346    0.28849    1.000
    N2788    N        0.47000    0.11306    0.30093    1.000
    Si2789   Si       0.51007    0.12705    0.30883    1.000
    N2790    N        0.49896    0.07730    0.25203    1.000
    Si2791   Si       0.47414    0.18829    0.31692    1.000
    Si2792   Si       0.47811    0.23853    0.26845    1.000
    N2793    N        0.47372    0.19664    0.27424    1.000
    N2794    N        0.50481    0.16254    0.33427    1.000
    N2795    N        0.48335    0.22507    0.34028    1.000
    N2796    N        0.47807    0.23278    0.40968    1.000
    N2797    N        0.49033    0.09809    0.38769    1.000
    Si2798   Si       0.49015    0.12219    0.42669    1.000
    N2799    N        0.46945    0.10104    0.45897    1.000
    N2800    N        0.48917    0.01315    0.45295    1.000
    Si2801   Si       0.46901    0.02142    0.48937    1.000
    Si2802   Si       0.51418    0.22311    0.49129    1.000
    N2803    N        0.46962    0.00888    0.37825    1.000
    N2804    N        0.47292    0.16188    0.42232    1.000
    N2805    N        0.47288    0.21443    0.48386    1.000
    Si2806   Si       0.49834    0.19583    0.42370    1.000
    N2807    N        0.48015    0.05155    0.57695    1.000
    N2808    N        0.49054    0.05416    0.51040    1.000
    Si2809   Si       0.46871    0.02266    0.60779    1.000
    N2810    N        0.49859    0.12312    0.57700    1.000
    Si2811   Si       0.50958    0.04526    0.54710    1.000
    Si2812   Si       0.46542    0.09298    0.57320    1.000
    Si2813   Si       0.47873    0.09592    0.50056    1.000
    N2814    N        0.51650    0.12150    0.50456    1.000
    N2815    N        0.49764    0.19932    0.58605    1.000
    Si2816   Si       0.50378    0.15981    0.60021    1.000
    N2817    N        0.46493    0.24901    0.55751    1.000
    N2818    N        0.50538    0.07434    0.73928    1.000
    N2819    N        0.50414    0.01839    0.63215    1.000
    Si2820   Si       0.47534    0.10569    0.63799    1.000
    Si2821   Si       0.46967    0.06923    0.71526    1.000
    N2822    N        0.46172    0.08889    0.67542    1.000
    N2823    N        0.51830    0.09301    0.64088    1.000
    N2824    N        0.50599    0.20073    0.66907    1.000
    Si2825   Si       0.47073    0.17794    0.66367    1.000
    N2826    N        0.46302    0.15575    0.70169    1.000
    N2827    N        0.47976    0.14924    0.63560    1.000
    Si2828   Si       0.51271    0.24381    0.67888    1.000
    Si2829   Si       0.45777    0.20843    0.57111    1.000
    N2830    N        0.47683    0.10847    0.79141    1.000
    N2831    N        0.50210    0.10161    0.85503    1.000
    Si2832   Si       0.48957    0.05860    0.86278    1.000
    Si2833   Si       0.47663    0.12742    0.83021    1.000
    Si2834   Si       0.51308    0.10199    0.77095    1.000
    N2835    N        0.45882    0.03809    0.84249    1.000
    N2836    N        0.49590    0.19332    0.74819    1.000
    Si2837   Si       0.51456    0.17320    0.78338    1.000
    N2838    N        0.46801    0.23656    0.80877    1.000
    N2839    N        0.48970    0.16708    0.81774    1.000
    Si2840   Si       0.47609    0.20297    0.83664    1.000
    N2841    N        0.45927    0.22003    0.92564    1.000
    Si2842   Si       0.50177    0.07451    0.93659    1.000
    N2843    N        0.47567    0.09774    0.96405    1.000
    N2844    N        0.47828    0.05852    0.90556    1.000
    Si2845   Si       0.51067    0.12568    0.89037    1.000
    Si2846   Si       0.49200    0.13279    0.98272    1.000
    N2847    N        0.46074    0.16374    0.96824    1.000
    Si2848   Si       0.47531    0.25004    0.95212    1.000
    N2849    N        0.47536    0.14880    0.90205    1.000
    N2850    N        0.50708    0.24151    0.97957    1.000
    Si2851   Si       0.47775    0.18114    0.93199    1.000
    Si2852   Si       0.49006    0.34065    0.06185    1.000
    Si2853   Si       0.47115    0.27114    0.05841    1.000
    N2854    N        0.48521    0.37933    0.08364    1.000
    N2855    N        0.51118    0.28223    0.04243    1.000
    N2856    N        0.50305    0.35041    0.02394    1.000
    N2857    N        0.51765    0.32677    0.09213    1.000
    N2858    N        0.49522    0.42794    0.02894    1.000
    N2859    N        0.48628    0.44244    0.09362    1.000
    Si2860   Si       0.50016    0.48504    0.10061    1.000
    Si2861   Si       0.50743    0.41364    0.06701    1.000
    Si2862   Si       0.46447    0.40859    0.10906    1.000
    Si2863   Si       0.49598    0.35505    0.12196    1.000
    N2864    N        0.51216    0.31849    0.18715    1.000
    Si2865   Si       0.46835    0.31796    0.17994    1.000
    N2866    N        0.46455    0.32398    0.13730    1.000
    Si2867   Si       0.48881    0.45974    0.20635    1.000
    N2868    N        0.47198    0.38861    0.14648    1.000
    N2869    N        0.46054    0.35351    0.20396    1.000
    N2870    N        0.47897    0.41798    0.21534    1.000
    N2871    N        0.46777    0.49663    0.12541    1.000
    Si2872   Si       0.48706    0.33495    0.35390    1.000
    N2873    N        0.46915    0.31812    0.26883    1.000
    Si2874   Si       0.50753    0.30436    0.28314    1.000
    N2875    N        0.50429    0.26300    0.29349    1.000
    N2876    N        0.46441    0.36987    0.33829    1.000
    Si2877   Si       0.45906    0.35503    0.24852    1.000
    N2878    N        0.49127    0.37999    0.26773    1.000
    N2879    N        0.50309    0.47630    0.31722    1.000
    Si2880   Si       0.48375    0.39412    0.30819    1.000
    Si2881   Si       0.45961    0.46735    0.32211    1.000
    Si2882   Si       0.49928    0.26845    0.39813    1.000
    N2883    N        0.47093    0.29979    0.37844    1.000
    N2884    N        0.50111    0.35085    0.39128    1.000
    Si2885   Si       0.47967    0.32408    0.41510    1.000
    N2886    N        0.50583    0.29428    0.43223    1.000
    N2887    N        0.48217    0.45778    0.43725    1.000
    N2888    N        0.50466    0.49766    0.38615    1.000
    Si2889   Si       0.48245    0.46078    0.39321    1.000
    N2890    N        0.51021    0.44016    0.49083    1.000
    N2891    N        0.50462    0.42802    0.37636    1.000
    Si2892   Si       0.49001    0.42013    0.45791    1.000
    Si2893   Si       0.49724    0.39197    0.39907    1.000
    Si2894   Si       0.50110    0.47844    0.47013    1.000
    N2895    N        0.51462    0.32168    0.32324    1.000
    N2896    N        0.49774    0.32480    0.49307    1.000
    N2897    N        0.48678    0.47692    0.24676    1.000
    Si2898   Si       0.50095    0.34362    0.53237    1.000
    Si2899   Si       0.48624    0.28219    0.57112    1.000
    N2900    N        0.47416    0.32303    0.56175    1.000
    N2901    N        0.49864    0.36745    0.61385    1.000
    Si2902   Si       0.46332    0.34586    0.60141    1.000
    N2903    N        0.49191    0.28926    0.61454    1.000
    N2904    N        0.47372    0.44371    0.68294    1.000
    N2905    N        0.48644    0.38572    0.52908    1.000
    N2906    N        0.48761    0.46159    0.55007    1.000
    Si2907   Si       0.50606    0.42532    0.53078    1.000
    N2908    N        0.51712    0.44433    0.61115    1.000
    Si2909   Si       0.51343    0.47508    0.58223    1.000
    Si2910   Si       0.46162    0.28605    0.71467    1.000
    Si2911   Si       0.50209    0.46131    0.71341    1.000
    N2912    N        0.47446    0.36405    0.69120    1.000
    N2913    N        0.49270    0.31165    0.73047    1.000
    Si2914   Si       0.48209    0.35221    0.73281    1.000
    Si2915   Si       0.50429    0.36273    0.65908    1.000
    N2916    N        0.47790    0.26711    0.67926    1.000
    Si2917   Si       0.50780    0.44394    0.65473    1.000
    N2918    N        0.46959    0.50178    0.49141    1.000
    Si2919   Si       0.47792    0.27131    0.78399    1.000
    N2920    N        0.50173    0.37280    0.76507    1.000
    N2921    N        0.46131    0.29908    0.81321    1.000
    Si2922   Si       0.46098    0.33195    0.83884    1.000
    N2923    N        0.46215    0.37365    0.82528    1.000
    N2924    N        0.47621    0.43259    0.85857    1.000
    Si2925   Si       0.47158    0.45860    0.78001    1.000
    N2926    N        0.50520    0.43709    0.79115    1.000
    Si2927   Si       0.51207    0.44215    0.83203    1.000
    Si2928   Si       0.46119    0.38383    0.78121    1.000
    N2929    N        0.48893    0.32101    0.87211    1.000
    N2930    N        0.49731    0.27706    0.92428    1.000
    Si2931   Si       0.46686    0.29463    0.89829    1.000
    N2932    N        0.48130    0.34999    0.95698    1.000
    Si2933   Si       0.48781    0.43703    0.90024    1.000
    N2934    N        0.51057    0.47515    0.90358    1.000
    Si2935   Si       0.48270    0.49891    0.96268    1.000
    N2936    N        0.50679    0.40591    0.92165    1.000
    N2937    N        0.51101    0.46640    0.96856    1.000
    Si2938   Si       0.46782    0.39006    0.93742    1.000
    Si2939   Si       0.51226    0.50589    0.87209    1.000
    N2940    N        0.48279    0.48148    0.74369    1.000
    Si2941   Si       0.50601    0.52124    0.03036    1.000
    Si2942   Si       0.48836    0.59684    0.10988    1.000
    N2943    N        0.46479    0.62110    0.08412    1.000
    N2944    N        0.49046    0.51877    0.07253    1.000
    N2945    N        0.47289    0.51396    0.00265    1.000
    Si2946   Si       0.46604    0.62268    0.99693    1.000
    N2947    N        0.49225    0.63787    0.02869    1.000
    N2948    N        0.49232    0.68533    0.08353    1.000
    N2949    N        0.48752    0.71151    0.02024    1.000
    Si2950   Si       0.47084    0.65565    0.06065    1.000
    N2951    N        0.47354    0.67886    0.15900    1.000
    N2952    N        0.49955    0.64530    0.21002    1.000
    Si2953   Si       0.47971    0.70162    0.12322    1.000
    N2954    N        0.46081    0.56480    0.12202    1.000
    N2955    N        0.47338    0.58079    0.20058    1.000
    N2956    N        0.50120    0.52148    0.17880    1.000
    N2957    N        0.50868    0.61786    0.14080    1.000
    Si2958   Si       0.46524    0.61936    0.21704    1.000
    Si2959   Si       0.51116    0.56319    0.18922    1.000
    N2960    N        0.47568    0.70262    0.22609    1.000
    Si2961   Si       0.51040    0.67772    0.23842    1.000
    N2962    N        0.50720    0.73429    0.13280    1.000
    Si2963   Si       0.50676    0.65304    0.16796    1.000
    Si2964   Si       0.46316    0.50752    0.16575    1.000
    N2965    N        0.48609    0.55276    0.31132    1.000
    Si2966   Si       0.47467    0.57762    0.34608    1.000
    N2967    N        0.47284    0.61676    0.32730    1.000
    N2968    N        0.50437    0.65791    0.27798    1.000
    N2969    N        0.49514    0.68942    0.34084    1.000
    N2970    N        0.49233    0.73239    0.29028    1.000
    Si2971   Si       0.46392    0.70785    0.31476    1.000
    Si2972   Si       0.46719    0.63880    0.29143    1.000
    Si2973   Si       0.47931    0.73961    0.24981    1.000
    N2974    N        0.50163    0.56824    0.37753    1.000
    Si2975   Si       0.47903    0.58795    0.48105    1.000
    Si2976   Si       0.49999    0.53527    0.40595    1.000
    N2977    N        0.47584    0.61009    0.44364    1.000
    N2978    N        0.51699    0.56768    0.48601    1.000
    N2979    N        0.48915    0.67300    0.41040    1.000
    N2980    N        0.49637    0.73578    0.40032    1.000
    Si2981   Si       0.50761    0.69848    0.38041    1.000
    Si2982   Si       0.49385    0.73211    0.44430    1.000
    Si2983   Si       0.50704    0.63905    0.43377    1.000
    Si2984   Si       0.49050    0.61145    0.60135    1.000
    N2985    N        0.48120    0.57338    0.58132    1.000
    N2986    N        0.47761    0.61942    0.51056    1.000
    Si2987   Si       0.46780    0.53526    0.59854    1.000
    N2988    N        0.50656    0.51538    0.59599    1.000
    Si2989   Si       0.50567    0.72219    0.54417    1.000
    Si2990   Si       0.48970    0.67627    0.58363    1.000
    N2991    N        0.49786    0.67772    0.53924    1.000
    N2992    N        0.46644    0.74142    0.54363    1.000
    N2993    N        0.46251    0.64046    0.57521    1.000
    Si2994   Si       0.51206    0.64775    0.51144    1.000
    N2995    N        0.51385    0.71437    0.58753    1.000
    N2996    N        0.46058    0.53973    0.63941    1.000
    N2997    N        0.48468    0.54365    0.71148    1.000
    N2998    N        0.50578    0.60556    0.68454    1.000
    N2999    N        0.51207    0.73365    0.65118    1.000
    Si3000   Si       0.49242    0.71908    0.68612    1.000
    N3001    N        0.47959    0.67776    0.68344    1.000
    Si3002   Si       0.49192    0.64085    0.70565    1.000
    N3003    N        0.49447    0.53688    0.78831    1.000
    N3004    N        0.47948    0.59951    0.84372    1.000
    N3005    N        0.47719    0.53141    0.85937    1.000
    Si3006   Si       0.47803    0.52401    0.75047    1.000
    Si3007   Si       0.46345    0.52752    0.81687    1.000
    N3008    N        0.48627    0.68674    0.83212    1.000
    Si3009   Si       0.49739    0.72327    0.80899    1.000
    Si3010   Si       0.49187    0.65949    0.79805    1.000
    N3011    N        0.50612    0.69474    0.77531    1.000
    N3012    N        0.46317    0.75087    0.81133    1.000
    Si3013   Si       0.46429    0.57122    0.87329    1.000
    N3014    N        0.50089    0.53350    0.94718    1.000
    N3015    N        0.49249    0.59415    0.97773    1.000
    N3016    N        0.48432    0.58951    0.90965    1.000
    Si3017   Si       0.47555    0.56914    0.94681    1.000
    Si3018   Si       0.50622    0.62598    0.90265    1.000
    Si3019   Si       0.48826    0.69269    0.98207    1.000
    N3020    N        0.47592    0.65745    0.90189    1.000
    N3021    N        0.49282    0.71734    0.94555    1.000
    Si3022   Si       0.48038    0.69104    0.87473    1.000
    Si3023   Si       0.46985    0.75391    0.94584    1.000
    N3024    N        0.48408    0.84378    0.03900    1.000
    N3025    N        0.47818    0.77268    0.05029    1.000
    N3026    N        0.51493    0.80064    0.09921    1.000
    Si3027   Si       0.48016    0.97881    0.21791    1.000
    Si3028   Si       0.47715    0.88345    0.02164    1.000
    N3029    N        0.47045    0.92542    0.02938    1.000
    N3030    N        0.47811    0.97201    0.07849    1.000
    Si3031   Si       0.50314    0.99026    0.10842    1.000
    N3032    N        0.50370    0.87256    0.12288    1.000
    N3033    N        0.50861    0.79566    0.16607    1.000
    Si3034   Si       0.48747    0.82922    0.18013    1.000
    Si3035   Si       0.49514    0.77480    0.13015    1.000
    N3036    N        0.51067    0.76605    0.23444    1.000
    N3037    N        0.45833    0.81709    0.21088    1.000
    Si3038   Si       0.45730    0.93534    0.07092    1.000
    N3039    N        0.48307    0.91666    0.17268    1.000
    Si3040   Si       0.46630    0.88758    0.13893    1.000
    Si3041   Si       0.51634    0.94135    0.16973    1.000
    Si3042   Si       0.47845    0.95318    0.99415    1.000
    N3043    N        0.48136    0.86311    0.32425    1.000
    N3044    N        0.48488    0.79557    0.35064    1.000
    Si3045   Si       0.47844    0.85901    0.28000    1.000
    Si3046   Si       0.49818    0.83776    0.35677    1.000
    N3047    N        0.49189    0.81910    0.26963    1.000
    N3048    N        0.51185    0.87947    0.25583    1.000
    Si3049   Si       0.51264    0.00261    0.37785    1.000
    Si3050   Si       0.47486    0.90331    0.33820    1.000
    N3051    N        0.49674    0.92482    0.30609    1.000
    Si3052   Si       0.50795    0.92243    0.26532    1.000
    N3053    N        0.50088    0.92374    0.36601    1.000
    Si3054   Si       0.50722    0.76962    0.37627    1.000
    N3055    N        0.48697    0.85706    0.39342    1.000
    Si3056   Si       0.48090    0.81134    0.46575    1.000
    N3057    N        0.49612    0.77079    0.46747    1.000
    N3058    N        0.51398    0.84085    0.45836    1.000
    Si3059   Si       0.51651    0.87097    0.42456    1.000
    Si3060   Si       0.46582    0.91471    0.45268    1.000
    N3061    N        0.50850    0.91180    0.43816    1.000
    Si3062   Si       0.49871    0.94147    0.40447    1.000
    N3063    N        0.48015    0.92916    0.48965    1.000
    N3064    N        0.47709    0.94532    0.24587    1.000
    N3065    N        0.49614    0.79881    0.56789    1.000
    Si3066   Si       0.49698    0.82990    0.53662    1.000
    N3067    N        0.48917    0.87400    0.54468    1.000
    N3068    N        0.46660    0.82057    0.50548    1.000
    Si3069   Si       0.48508    0.97676    0.55493    1.000
    N3070    N        0.51169    0.94196    0.55456    1.000
    N3071    N        0.46173    0.98345    0.59011    1.000
    N3072    N        0.46413    0.98772    0.51807    1.000
    N3073    N        0.49296    0.86484    0.62196    1.000
    N3074    N        0.47901    0.82975    0.70861    1.000
    N3075    N        0.50414    0.79385    0.63633    1.000
    Si3076   Si       0.48723    0.85131    0.66827    1.000
    Si3077   Si       0.51066    0.81163    0.73271    1.000
    N3078    N        0.50385    0.95174    0.65888    1.000
    Si3079   Si       0.46943    0.89821    0.71879    1.000
    Si3080   Si       0.46229    0.94445    0.65783    1.000
    N3081    N        0.49950    0.89058    0.68867    1.000
    Si3082   Si       0.47848    0.75637    0.63628    1.000
    N3083    N        0.49425    0.79315    0.76999    1.000
    N3084    N        0.48198    0.85911    0.80619    1.000
    Si3085   Si       0.50836    0.82935    0.79200    1.000
    Si3086   Si       0.46319    0.85046    0.84472    1.000
    N3087    N        0.48678    0.82272    0.86989    1.000
    N3088    N        0.50049    0.92468    0.82364    1.000
    Si3089   Si       0.47720    0.90164    0.79279    1.000
    N3090    N        0.49484    0.90928    0.75350    1.000
    Si3091   Si       0.51201    0.99039    0.77057    1.000
    Si3092   Si       0.49282    0.90938    0.86250    1.000
    N3093    N        0.46608    0.00143    0.77191    1.000
    Si3094   Si       0.46764    0.00566    0.81478    1.000
    N3095    N        0.51210    0.00428    0.81173    1.000
    N3096    N        0.48629    0.86066    0.92662    1.000
    Si3097   Si       0.47064    0.82051    0.91168    1.000
    N3098    N        0.49232    0.78792    0.93197    1.000
    Si3099   Si       0.46843    0.95174    0.91892    1.000
    N3100    N        0.46970    0.93118    0.95684    1.000
    Si3101   Si       0.45989    0.89013    0.94890    1.000
    N3102    N        0.47999    0.99069    0.92765    1.000
    N3103    N        0.49794    0.94186    0.88941    1.000
    N3104    N        0.51654    0.97826    0.98599    1.000
    Si3105   Si       0.51888    0.99926    0.94830    1.000
    N3106    N        0.54333    0.03643    0.02105    1.000
    Si3107   Si       0.55939    0.11162    0.07170    1.000
    N3108    N        0.52607    0.08497    0.06996    1.000
    Si3109   Si       0.52212    0.04281    0.05822    1.000
    N3110    N        0.53428    0.01237    0.08742    1.000
    N3111    N        0.55706    0.13981    0.03958    1.000
    N3112    N        0.53915    0.14111    0.09763    1.000
    N3113    N        0.52935    0.20044    0.05706    1.000
    Si3114   Si       0.56255    0.21338    0.03018    1.000
    Si3115   Si       0.52060    0.22477    0.09062    1.000
    Si3116   Si       0.51985    0.15799    0.05945    1.000
    N3117    N        0.56721    0.25525    0.02128    1.000
    Si3118   Si       0.56265    0.15015    0.99943    1.000
    N3119    N        0.55106    0.25657    0.09353    1.000
    Si3120   Si       0.54033    0.08429    0.17522    1.000
    N3121    N        0.56451    0.02451    0.14672    1.000
    N3122    N        0.53124    0.11831    0.20106    1.000
    N3123    N        0.52625    0.04887    0.19497    1.000
    Si3124   Si       0.52923    0.01329    0.16991    1.000
    Si3125   Si       0.55602    0.17333    0.12459    1.000
    N3126    N        0.52321    0.19417    0.19210    1.000
    Si3127   Si       0.54769    0.15861    0.19758    1.000
    N3128    N        0.57049    0.15511    0.15975    1.000
    Si3129   Si       0.53355    0.22656    0.22016    1.000
    N3130    N        0.52156    0.20130    0.12515    1.000
    N3131    N        0.51848    0.08505    0.13721    1.000
    N3132    N        0.55666    0.04080    0.30114    1.000
    N3133    N        0.53544    0.09821    0.32804    1.000
    Si3134   Si       0.52429    0.02801    0.32540    1.000
    Si3135   Si       0.57097    0.08043    0.30772    1.000
    N3136    N        0.52669    0.04234    0.36746    1.000
    N3137    N        0.53980    0.01002    0.24930    1.000
    Si3138   Si       0.57699    0.01438    0.27519    1.000
    N3139    N        0.52916    0.13542    0.26976    1.000
    N3140    N        0.55022    0.21283    0.32653    1.000
    Si3141   Si       0.54001    0.18031    0.35243    1.000
    N3142    N        0.54431    0.21437    0.25827    1.000
    Si3143   Si       0.57150    0.14208    0.26785    1.000
    Si3144   Si       0.57207    0.20867    0.28951    1.000
    N3145    N        0.57445    0.15616    0.36176    1.000
    Si3146   Si       0.52942    0.08555    0.36902    1.000
    N3147    N        0.57240    0.09074    0.46199    1.000
    N3148    N        0.56016    0.09617    0.39577    1.000
    N3149    N        0.56716    0.02662    0.44345    1.000
    Si3150   Si       0.54775    0.12532    0.47374    1.000
    Si3151   Si       0.57631    0.06779    0.42593    1.000
    N3152    N        0.53234    0.19350    0.39236    1.000
    Si3153   Si       0.55955    0.14023    0.40068    1.000
    N3154    N        0.53018    0.20624    0.45383    1.000
    N3155    N        0.53054    0.13482    0.43433    1.000
    Si3156   Si       0.56069    0.20419    0.42362    1.000
    N3157    N        0.57158    0.15837    0.48852    1.000
    Si3158   Si       0.52082    0.24729    0.33001    1.000
    N3159    N        0.54001    0.07525    0.54721    1.000
    Si3160   Si       0.52664    0.11830    0.54622    1.000
    N3161    N        0.55485    0.14876    0.55278    1.000
    N3162    N        0.56269    0.22504    0.59220    1.000
    Si3163   Si       0.56118    0.18057    0.52431    1.000
    N3164    N        0.52706    0.20751    0.52805    1.000
    Si3165   Si       0.52684    0.22793    0.56721    1.000
    Si3166   Si       0.57616    0.14346    0.59137    1.000
    N3167    N        0.54596    0.15796    0.62017    1.000
    N3168    N        0.54180    0.06244    0.68948    1.000
    Si3169   Si       0.53883    0.04723    0.72759    1.000
    Si3170   Si       0.54662    0.10357    0.67203    1.000
    Si3171   Si       0.53001    0.05170    0.64670    1.000
    N3172    N        0.57131    0.04549    0.63447    1.000
    N3173    N        0.54021    0.14465    0.69043    1.000
    N3174    N        0.52776    0.25083    0.72033    1.000
    N3175    N        0.56920    0.19200    0.73239    1.000
    Si3176   Si       0.55848    0.14901    0.72751    1.000
    Si3177   Si       0.54080    0.17589    0.66042    1.000
    Si3178   Si       0.57146    0.23491    0.63361    1.000
    N3179    N        0.53026    0.00648    0.73512    1.000
    N3180    N        0.54118    0.08457    0.79987    1.000
    Si3181   Si       0.54358    0.08082    0.84278    1.000
    N3182    N        0.53126    0.04412    0.86077    1.000
    Si3183   Si       0.54732    0.01149    0.83584    1.000
    N3184    N        0.53211    0.13939    0.76362    1.000
    N3185    N        0.53695    0.21001    0.78949    1.000
    Si3186   Si       0.54021    0.23158    0.82754    1.000
    Si3187   Si       0.53425    0.21644    0.74587    1.000
    N3188    N        0.52996    0.09916    0.91706    1.000
    Si3189   Si       0.55457    0.05113    0.98124    1.000
    Si3190   Si       0.56145    0.11446    0.94357    1.000
    N3191    N        0.52034    0.04232    0.95812    1.000
    N3192    N        0.53423    0.13261    0.97322    1.000
    N3193    N        0.51975    0.19445    0.92869    1.000
    Si3194   Si       0.53791    0.21725    0.96057    1.000
    N3195    N        0.54114    0.15500    0.87811    1.000
    Si3196   Si       0.53762    0.19730    0.89007    1.000
    N3197    N        0.56201    0.24900    0.94486    1.000
    N3198    N        0.57653    0.01195    0.97633    1.000
    N3199    N        0.51243    0.21712    0.85927    1.000
    N3200    N        0.55366    0.19224    0.99336    1.000
    Si3201   Si       0.53828    0.29439    0.07308    1.000
    Si3202   Si       0.52918    0.26991    0.00403    1.000
    Si3203   Si       0.51178    0.40721    0.24068    1.000
    N3204    N        0.54836    0.41378    0.08423    1.000
    N3205    N        0.53448    0.48752    0.02704    1.000
    N3206    N        0.56355    0.42323    0.01606    1.000
    Si3207   Si       0.52800    0.44981    0.00626    1.000
    Si3208   Si       0.57347    0.49922    0.03749    1.000
    Si3209   Si       0.57608    0.49904    0.10039    1.000
    Si3210   Si       0.56184    0.38944    0.11901    1.000
    Si3211   Si       0.53856    0.35584    0.18394    1.000
    N3212    N        0.53241    0.36632    0.14149    1.000
    Si3213   Si       0.53977    0.29860    0.21462    1.000
    N3214    N        0.57115    0.33574    0.20361    1.000
    Si3215   Si       0.55505    0.42752    0.18546    1.000
    N3216    N        0.52512    0.45954    0.18204    1.000
    N3217    N        0.53831    0.49314    0.12043    1.000
    Si3218   Si       0.53509    0.49858    0.16458    1.000
    N3219    N        0.53786    0.39223    0.20704    1.000
    N3220    N        0.55561    0.26005    0.20478    1.000
    Si3221   Si       0.55580    0.31479    0.33930    1.000
    N3222    N        0.53944    0.31586    0.25518    1.000
    N3223    N        0.56753    0.28026    0.31788    1.000
    Si3224   Si       0.57122    0.34503    0.24823    1.000
    N3225    N        0.57260    0.38545    0.26698    1.000
    N3226    N        0.53077    0.26273    0.37110    1.000
    N3227    N        0.56408    0.39793    0.38206    1.000
    Si3228   Si       0.56715    0.38402    0.30982    1.000
    N3229    N        0.52728    0.39893    0.32290    1.000
    N3230    N        0.53640    0.43907    0.26056    1.000
    Si3231   Si       0.52821    0.49057    0.35069    1.000
    Si3232   Si       0.54231    0.42376    0.35397    1.000
    N3233    N        0.55951    0.46309    0.35700    1.000
    Si3234   Si       0.51812    0.47755    0.27604    1.000
    N3235    N        0.56388    0.31193    0.47624    1.000
    Si3236   Si       0.52400    0.30023    0.47092    1.000
    N3237    N        0.53386    0.26145    0.49018    1.000
    Si3238   Si       0.57381    0.26366    0.37970    1.000
    N3239    N        0.53930    0.50030    0.47120    1.000
    Si3240   Si       0.56171    0.40059    0.42571    1.000
    Si3241   Si       0.57472    0.47297    0.46940    1.000
    N3242    N        0.51946    0.39925    0.43527    1.000
    N3243    N        0.54081    0.34021    0.54617    1.000
    N3244    N        0.55997    0.30716    0.60591    1.000
    Si3245   Si       0.55636    0.30218    0.56299    1.000
    Si3246   Si       0.56236    0.37737    0.53845    1.000
    N3247    N        0.52692    0.27120    0.56072    1.000
    Si3248   Si       0.57462    0.27741    0.50023    1.000
    N3249    N        0.56563    0.38107    0.49433    1.000
    N3250    N        0.56823    0.38542    0.61136    1.000
    N3251    N        0.54401    0.41656    0.55285    1.000
    N3252    N        0.55125    0.48538    0.56346    1.000
    Si3253   Si       0.57126    0.45064    0.54960    1.000
    Si3254   Si       0.52862    0.40042    0.61312    1.000
    N3255    N        0.53920    0.25779    0.64998    1.000
    Si3256   Si       0.52945    0.28968    0.73982    1.000
    Si3257   Si       0.52937    0.29645    0.63173    1.000
    N3258    N        0.56494    0.31069    0.72769    1.000
    N3259    N        0.53136    0.32839    0.66242    1.000
    Si3260   Si       0.56707    0.33338    0.68907    1.000
    N3261    N        0.56998    0.37269    0.70932    1.000
    Si3262   Si       0.54966    0.40808    0.69539    1.000
    N3263    N        0.52441    0.42441    0.72539    1.000
    N3264    N        0.52594    0.47434    0.68045    1.000
    Si3265   Si       0.56814    0.47886    0.68043    1.000
    N3266    N        0.52610    0.40223    0.65920    1.000
    Si3267   Si       0.54743    0.30093    0.80906    1.000
    N3268    N        0.54551    0.33664    0.83707    1.000
    N3269    N        0.53904    0.27422    0.84289    1.000
    Si3270   Si       0.55975    0.37443    0.85170    1.000
    N3271    N        0.52050    0.28040    0.78069    1.000
    N3272    N        0.54308    0.41246    0.83826    1.000
    Si3273   Si       0.56431    0.49802    0.81873    1.000
    Si3274   Si       0.52510    0.40884    0.76558    1.000
    N3275    N        0.52755    0.48383    0.83800    1.000
    N3276    N        0.56885    0.40555    0.77652    1.000
    Si3277   Si       0.53283    0.30848    0.86876    1.000
    Si3278   Si       0.53777    0.28669    0.93820    1.000
    N3279    N        0.55667    0.30529    0.90470    1.000
    N3280    N        0.53197    0.30425    0.97787    1.000
    N3281    N        0.54765    0.37133    0.96899    1.000
    N3282    N        0.56503    0.37920    0.89484    1.000
    N3283    N        0.56592    0.43493    0.93860    1.000
    Si3284   Si       0.54092    0.46926    0.93575    1.000
    Si3285   Si       0.54713    0.39488    0.93169    1.000
    N3286    N        0.56553    0.50335    0.94547    1.000
    Si3287   Si       0.51636    0.34499    0.98369    1.000
    Si3288   Si       0.54864    0.56599    0.06095    1.000
    N3289    N        0.52656    0.57941    0.09441    1.000
    N3290    N        0.56844    0.52955    0.06973    1.000
    N3291    N        0.55801    0.62057    0.99968    1.000
    N3292    N        0.52685    0.55918    0.02507    1.000
    Si3293   Si       0.53057    0.65093    0.01454    1.000
    N3294    N        0.53923    0.74071    0.06384    1.000
    N3295    N        0.54779    0.67811    0.04125    1.000
    Si3296   Si       0.54483    0.59713    0.12963    1.000
    N3297    N        0.53759    0.56488    0.22346    1.000
    N3298    N        0.54878    0.56810    0.16243    1.000
    Si3299   Si       0.57794    0.55205    0.19586    1.000
    N3300    N        0.55233    0.68512    0.23170    1.000
    N3301    N        0.55669    0.74586    0.18110    1.000
    Si3302   Si       0.54365    0.71666    0.15049    1.000
    N3303    N        0.54174    0.67646    0.16446    1.000
    Si3304   Si       0.57034    0.66830    0.19696    1.000
    N3305    N        0.57685    0.71862    0.12091    1.000
    Si3306   Si       0.51650    0.70519    0.05314    1.000
    N3307    N        0.57327    0.50951    0.18302    1.000
    N3308    N        0.54948    0.52704    0.34122    1.000
    N3309    N        0.55539    0.57701    0.29344    1.000
    Si3310   Si       0.55761    0.54884    0.25860    1.000
    Si3311   Si       0.52810    0.54309    0.30782    1.000
    N3312    N        0.53747    0.51480    0.27482    1.000
    Si3313   Si       0.57305    0.61606    0.30593    1.000
    N3314    N        0.54867    0.63829    0.33356    1.000
    N3315    N        0.55243    0.70254    0.30174    1.000
    Si3316   Si       0.53146    0.74025    0.30802    1.000
    N3317    N        0.53302    0.74588    0.34988    1.000
    Si3318   Si       0.52451    0.67179    0.31541    1.000
    Si3319   Si       0.55799    0.68610    0.47143    1.000
    Si3320   Si       0.53851    0.58223    0.39571    1.000
    Si3321   Si       0.54714    0.54272    0.46747    1.000
    N3322    N        0.53549    0.62393    0.40416    1.000
    N3323    N        0.53654    0.54996    0.42669    1.000
    Si3324   Si       0.56836    0.72819    0.36824    1.000
    Si3325   Si       0.55767    0.64780    0.37610    1.000
    N3326    N        0.52456    0.65667    0.47196    1.000
    N3327    N        0.54927    0.69019    0.37895    1.000
    N3328    N        0.53473    0.72167    0.45824    1.000
    Si3329   Si       0.57472    0.68782    0.26862    1.000
    N3330    N        0.54208    0.55693    0.54979    1.000
    Si3331   Si       0.52898    0.55525    0.59080    1.000
    Si3332   Si       0.54422    0.58173    0.51475    1.000
    N3333    N        0.54568    0.62385    0.52699    1.000
    N3334    N        0.57059    0.54078    0.60185    1.000
    Si3335   Si       0.56999    0.52505    0.56026    1.000
    N3336    N        0.53542    0.74490    0.52451    1.000
    Si3337   Si       0.55953    0.65559    0.61140    1.000
    N3338    N        0.56882    0.68803    0.51390    1.000
    Si3339   Si       0.54004    0.72457    0.61926    1.000
    Si3340   Si       0.55290    0.75189    0.72226    1.000
    N3341    N        0.52581    0.58702    0.61866    1.000
    N3342    N        0.55423    0.56831    0.68072    1.000
    Si3343   Si       0.54049    0.59993    0.65640    1.000
    Si3344   Si       0.51953    0.57025    0.70887    1.000
    N3345    N        0.56843    0.63238    0.64832    1.000
    N3346    N        0.56977    0.69537    0.62985    1.000
    N3347    N        0.52372    0.64736    0.73257    1.000
    N3348    N        0.52319    0.72047    0.71733    1.000
    N3349    N        0.51791    0.64829    0.60392    1.000
    Si3350   Si       0.53585    0.55130    0.78724    1.000
    N3351    N        0.54339    0.56863    0.82558    1.000
    Si3352   Si       0.54122    0.61713    0.76018    1.000
    Si3353   Si       0.56832    0.55582    0.86175    1.000
    N3354    N        0.56291    0.51975    0.78176    1.000
    N3355    N        0.53402    0.57664    0.74939    1.000
    Si3356   Si       0.52225    0.60549    0.83387    1.000
    N3357    N        0.52346    0.62842    0.79744    1.000
    N3358    N        0.53515    0.73847    0.82199    1.000
    Si3359   Si       0.54752    0.73013    0.86386    1.000
    Si3360   Si       0.56806    0.65750    0.96308    1.000
    Si3361   Si       0.53306    0.68750    0.74344    1.000
    N3362    N        0.53544    0.61947    0.87086    1.000
    N3363    N        0.55853    0.56957    0.95731    1.000
    N3364    N        0.54345    0.53319    0.89004    1.000
    Si3365   Si       0.54341    0.53822    0.93308    1.000
    Si3366   Si       0.57253    0.62339    0.89802    1.000
    Si3367   Si       0.53313    0.58446    0.98984    1.000
    N3368    N        0.52236    0.70359    0.88548    1.000
    N3369    N        0.56752    0.70289    0.94394    1.000
    Si3370   Si       0.52841    0.69209    0.92877    1.000
    N3371    N        0.52752    0.67244    0.97828    1.000
    N3372    N        0.54073    0.64575    0.92490    1.000
    N3373    N        0.53921    0.79849    0.02936    1.000
    N3374    N        0.54676    0.85582    0.06314    1.000
    Si3375   Si       0.52830    0.84213    0.10072    1.000
    Si3376   Si       0.53144    0.84385    0.02354    1.000
    Si3377   Si       0.57551    0.77330    0.02923    1.000
    Si3378   Si       0.55098    0.99587    0.00907    1.000
    N3379    N        0.56509    0.91031    0.09715    1.000
    Si3380   Si       0.57295    0.00639    0.10868    1.000
    N3381    N        0.52235    0.97679    0.19586    1.000
    N3382    N        0.51758    0.88250    0.00519    1.000
    N3383    N        0.55234    0.81129    0.22508    1.000
    Si3384   Si       0.53314    0.87340    0.15391    1.000
    Si3385   Si       0.53269    0.77851    0.19779    1.000
    N3386    N        0.56008    0.84451    0.13366    1.000
    Si3387   Si       0.53935    0.85419    0.23131    1.000
    N3388    N        0.51776    0.85796    0.19159    1.000
    Si3389   Si       0.56475    0.93765    0.12874    1.000
    Si3390   Si       0.55068    0.97281    0.23038    1.000
    N3391    N        0.52623    0.95860    0.12995    1.000
    N3392    N        0.55334    0.91237    0.16687    1.000
    Si3393   Si       0.57946    0.88005    0.07079    1.000
    Si3394   Si       0.51928    0.77995    0.06209    1.000
    N3395    N        0.54140    0.83269    0.35097    1.000
    N3396    N        0.54794    0.77631    0.29399    1.000
    Si3397   Si       0.56220    0.80942    0.31720    1.000
    Si3398   Si       0.52957    0.79793    0.26170    1.000
    N3399    N        0.56631    0.83604    0.28352    1.000
    N3400    N        0.54785    0.94308    0.26006    1.000
    N3401    N        0.56313    0.92615    0.33040    1.000
    Si3402   Si       0.52258    0.94339    0.33569    1.000
    N3403    N        0.52123    0.98547    0.33888    1.000
    N3404    N        0.56137    0.78922    0.46915    1.000
    Si3405   Si       0.56043    0.78954    0.42298    1.000
    Si3406   Si       0.55138    0.83134    0.48381    1.000
    N3407    N        0.52253    0.79728    0.40615    1.000
    N3408    N        0.55129    0.87730    0.40165    1.000
    Si3409   Si       0.57113    0.84716    0.37804    1.000
    Si3410   Si       0.53496    0.75895    0.48393    1.000
    N3411    N        0.52245    0.97681    0.41036    1.000
    Si3412   Si       0.52082    0.93082    0.47533    1.000
    Si3413   Si       0.53320    0.00071    0.44716    1.000
    N3414    N        0.54193    0.96940    0.47675    1.000
    N3415    N        0.57626    0.75881    0.39753    1.000
    N3416    N        0.54112    0.83379    0.52492    1.000
    N3417    N        0.55004    0.83263    0.59731    1.000
    Si3418   Si       0.56543    0.84648    0.55850    1.000
    Si3419   Si       0.52557    0.79694    0.59776    1.000
    N3420    N        0.55561    0.76373    0.60411    1.000
    N3421    N        0.55775    0.88963    0.56499    1.000
    N3422    N        0.55480    0.97602    0.60400    1.000
    Si3423   Si       0.54490    0.97060    0.56296    1.000
    N3424    N        0.54153    0.90342    0.50138    1.000
    Si3425   Si       0.52254    0.90084    0.54127    1.000
    N3426    N        0.52108    0.00331    0.55321    1.000
    N3427    N        0.57798    0.95300    0.54151    1.000
    Si3428   Si       0.53553    0.86179    0.62682    1.000
    Si3429   Si       0.53766    0.79486    0.66633    1.000
    N3430    N        0.53446    0.83995    0.66403    1.000
    N3431    N        0.52906    0.78452    0.70684    1.000
    N3432    N        0.55525    0.99342    0.67360    1.000
    N3433    N        0.54995    0.90074    0.64224    1.000
    Si3434   Si       0.56005    0.97962    0.71723    1.000
    N3435    N        0.54752    0.93632    0.71450    1.000
    Si3436   Si       0.52910    0.98200    0.64006    1.000
    Si3437   Si       0.52898    0.91920    0.67565    1.000
    Si3438   Si       0.55260    0.77555    0.80770    1.000
    N3439    N        0.53203    0.80977    0.82292    1.000
    N3440    N        0.56434    0.76694    0.76342    1.000
    N3441    N        0.53220    0.84073    0.75764    1.000
    Si3442   Si       0.52862    0.80819    0.86517    1.000
    Si3443   Si       0.57402    0.85335    0.75092    1.000
    N3444    N        0.55422    0.97138    0.85006    1.000
    N3445    N        0.53796    0.95544    0.77876    1.000
    Si3446   Si       0.54034    0.94146    0.81879    1.000
    N3447    N        0.56678    0.89298    0.76815    1.000
    Si3448   Si       0.53628    0.92082    0.75369    1.000
    Si3449   Si       0.56829    0.89463    0.86677    1.000
    N3450    N        0.57657    0.91564    0.82839    1.000
    N3451    N        0.56399    0.77730    0.95073    1.000
    Si3452   Si       0.53413    0.78468    0.92202    1.000
    N3453    N        0.54648    0.82527    0.90229    1.000
    N3454    N        0.53350    0.76727    0.88102    1.000
    Si3455   Si       0.52529    0.86281    0.90951    1.000
    N3456    N        0.55978    0.84270    0.98661    1.000
    N3457    N        0.56775    0.92592    0.98051    1.000
    N3458    N        0.55054    0.98960    0.92020    1.000
    N3459    N        0.52647    0.88363    0.87209    1.000
    Si3460   Si       0.53983    0.95739    0.89104    1.000
    Si3461   Si       0.55021    0.88550    0.97787    1.000
    N3462    N        0.57347    0.92911    0.89233    1.000
    N3463    N        0.55348    0.88675    0.93373    1.000
    N3464    N        0.60215    0.02376    0.08084    1.000
    N3465    N        0.59494    0.09517    0.08957    1.000
    Si3466   Si       0.62176    0.05959    0.09320    1.000
    N3467    N        0.62812    0.07271    0.01551    1.000
    Si3468   Si       0.63127    0.12139    0.09139    1.000
    Si3469   Si       0.58862    0.24584    0.11000    1.000
    N3470    N        0.58590    0.19986    0.10621    1.000
    N3471    N        0.60054    0.19875    0.03871    1.000
    Si3472   Si       0.61900    0.19481    0.07742    1.000
    Si3473   Si       0.62388    0.16584    0.02293    1.000
    N3474    N        0.61473    0.25346    0.07781    1.000
    N3475    N        0.63264    0.13980    0.19532    1.000
    N3476    N        0.58476    0.08798    0.17353    1.000
    Si3477   Si       0.59931    0.04748    0.15908    1.000
    N3478    N        0.62232    0.02340    0.18618    1.000
    Si3479   Si       0.60319    0.12694    0.16403    1.000
    N3480    N        0.63298    0.04884    0.13255    1.000
    Si3481   Si       0.62274    0.01398    0.22541    1.000
    N3482    N        0.60515    0.26224    0.14590    1.000
    Si3483   Si       0.59599    0.25250    0.19010    1.000
    N3484    N        0.63192    0.13421    0.13254    1.000
    Si3485   Si       0.61696    0.17585    0.21655    1.000
    N3486    N        0.57874    0.15939    0.22753    1.000
    N3487    N        0.60828    0.21873    0.21221    1.000
    N3488    N        0.60385    0.07292    0.33379    1.000
    Si3489   Si       0.62393    0.07944    0.25825    1.000
    N3490    N        0.59113    0.10177    0.27369    1.000
    N3491    N        0.60446    0.03929    0.25663    1.000
    Si3492   Si       0.62083    0.04500    0.36521    1.000
    Si3493   Si       0.60920    0.16151    0.33732    1.000
    N3494    N        0.60529    0.23596    0.28344    1.000
    N3495    N        0.58953    0.17000    0.29838    1.000
    N3496    N        0.60866    0.24745    0.36022    1.000
    Si3497   Si       0.63078    0.22730    0.24920    1.000
    N3498    N        0.63290    0.05502    0.46653    1.000
    Si3499   Si       0.60836    0.01724    0.46047    1.000
    N3500    N        0.62993    0.12600    0.46682    1.000
    Si3501   Si       0.61104    0.08985    0.48171    1.000
    N3502    N        0.61449    0.05960    0.40622    1.000
    N3503    N        0.58684    0.16936    0.42453    1.000
    N3504    N        0.63462    0.19346    0.47366    1.000
    N3505    N        0.58131    0.24160    0.41644    1.000
    Si3506   Si       0.60624    0.16206    0.46257    1.000
    N3507    N        0.60975    0.08851    0.52470    1.000
    N3508    N        0.59700    0.03369    0.55664    1.000
    N3509    N        0.58385    0.09994    0.59127    1.000
    Si3510   Si       0.58229    0.07551    0.55522    1.000
    N3511    N        0.60773    0.17323    0.59277    1.000
    Si3512   Si       0.60117    0.21186    0.57268    1.000
    N3513    N        0.59277    0.20972    0.53043    1.000
    Si3514   Si       0.62160    0.22426    0.50280    1.000
    N3515    N        0.63477    0.23724    0.57021    1.000
    Si3516   Si       0.59723    0.07972    0.62610    1.000
    N3517    N        0.58782    0.10673    0.65894    1.000
    Si3518   Si       0.61121    0.02952    0.73099    1.000
    N3519    N        0.61576    0.03617    0.68601    1.000
    Si3520   Si       0.61842    0.12403    0.68484    1.000
    Si3521   Si       0.59013    0.01473    0.65871    1.000
    N3522    N        0.59732    0.12680    0.72420    1.000
    N3523    N        0.57632    0.20106    0.66215    1.000
    N3524    N        0.63312    0.16222    0.67080    1.000
    N3525    N        0.62781    0.23557    0.69113    1.000
    Si3526   Si       0.61235    0.19534    0.69244    1.000
    N3527    N        0.60692    0.09975    0.79196    1.000
    Si3528   Si       0.61802    0.02357    0.83059    1.000
    N3529    N        0.58152    0.03282    0.81397    1.000
    Si3530   Si       0.62057    0.12545    0.75938    1.000
    Si3531   Si       0.57884    0.06772    0.78733    1.000
    N3532    N        0.57858    0.09939    0.85925    1.000
    Si3533   Si       0.61778    0.13600    0.81721    1.000
    N3534    N        0.58517    0.22718    0.82884    1.000
    N3535    N        0.60490    0.16011    0.85081    1.000
    N3536    N        0.60472    0.16013    0.78255    1.000
    N3537    N        0.61744    0.23689    0.76541    1.000
    Si3538   Si       0.60355    0.20192    0.85757    1.000
    Si3539   Si       0.60523    0.19589    0.75756    1.000
    Si3540   Si       0.60557    0.25503    0.80250    1.000
    Si3541   Si       0.58112    0.13829    0.87812    1.000
    N3542    N        0.62257    0.02253    0.92677    1.000
    Si3543   Si       0.61508    0.09866    0.98327    1.000
    N3544    N        0.59227    0.13497    0.92015    1.000
    N3545    N        0.57862    0.08227    0.96776    1.000
    N3546    N        0.62580    0.22136    0.95452    1.000
    N3547    N        0.58038    0.21176    0.89312    1.000
    Si3548   Si       0.59850    0.23560    0.92531    1.000
    N3549    N        0.60450    0.13820    0.99233    1.000
    N3550    N        0.57751    0.05427    0.74713    1.000
    N3551    N        0.60046    0.35435    0.01824    1.000
    N3552    N        0.58976    0.36471    0.10049    1.000
    Si3553   Si       0.60288    0.27532    0.04277    1.000
    Si3554   Si       0.60320    0.34635    0.06287    1.000
    N3555    N        0.57918    0.30872    0.06060    1.000
    N3556    N        0.61978    0.41426    0.05296    1.000
    N3557    N        0.58541    0.47084    0.06732    1.000
    Si3558   Si       0.57945    0.42926    0.05677    1.000
    Si3559   Si       0.58133    0.38640    0.99694    1.000
    Si3560   Si       0.62839    0.36097    0.12136    1.000
    N3561    N        0.62420    0.33005    0.15142    1.000
    N3562    N        0.61890    0.28828    0.20315    1.000
    Si3563   Si       0.61344    0.32795    0.19215    1.000
    Si3564   Si       0.60468    0.48185    0.19590    1.000
    N3565    N        0.57982    0.41056    0.15384    1.000
    N3566    N        0.62116    0.46537    0.15819    1.000
    N3567    N        0.58343    0.44642    0.21219    1.000
    Si3568   Si       0.62197    0.42229    0.16278    1.000
    Si3569   Si       0.62286    0.32378    0.99465    1.000
    Si3570   Si       0.61624    0.32846    0.30137    1.000
    N3571    N        0.61034    0.32911    0.25889    1.000
    N3572    N        0.58193    0.34508    0.32267    1.000
    Si3573   Si       0.60669    0.26221    0.31889    1.000
    N3574    N        0.61890    0.43574    0.26673    1.000
    N3575    N        0.59626    0.40922    0.32788    1.000
    N3576    N        0.62506    0.47434    0.33024    1.000
    Si3577   Si       0.62598    0.43703    0.30958    1.000
    Si3578   Si       0.60195    0.46579    0.36609    1.000
    Si3579   Si       0.57803    0.42818    0.25265    1.000
    N3580    N        0.62861    0.35952    0.38120    1.000
    Si3581   Si       0.60061    0.33302    0.40304    1.000
    N3582    N        0.62025    0.30300    0.42831    1.000
    Si3583   Si       0.58350    0.34899    0.47183    1.000
    N3584    N        0.62318    0.34385    0.48462    1.000
    N3585    N        0.58157    0.36079    0.43194    1.000
    Si3586   Si       0.61705    0.25920    0.43491    1.000
    N3587    N        0.62149    0.43167    0.38605    1.000
    Si3588   Si       0.60616    0.39481    0.36964    1.000
    N3589    N        0.60163    0.50208    0.39235    1.000
    Si3590   Si       0.58971    0.41908    0.49019    1.000
    N3591    N        0.57594    0.30829    0.37903    1.000
    N3592    N        0.57760    0.43419    0.45054    1.000
    N3593    N        0.60748    0.25668    0.48014    1.000
    N3594    N        0.58811    0.28679    0.53957    1.000
    N3595    N        0.62360    0.31246    0.59087    1.000
    Si3596   Si       0.62697    0.28081    0.56142    1.000
    N3597    N        0.60327    0.37622    0.55127    1.000
    Si3598   Si       0.63186    0.37032    0.51884    1.000
    Si3599   Si       0.60278    0.39630    0.58815    1.000
    N3600    N        0.60046    0.43922    0.57792    1.000
    N3601    N        0.58316    0.45815    0.51007    1.000
    N3602    N        0.63095    0.40810    0.49768    1.000
    Si3603   Si       0.63279    0.46357    0.59022    1.000
    N3604    N        0.62887    0.29229    0.72404    1.000
    Si3605   Si       0.59805    0.30322    0.62513    1.000
    N3606    N        0.60198    0.32187    0.66470    1.000
    N3607    N        0.60516    0.26168    0.63277    1.000
    N3608    N        0.62755    0.40769    0.73236    1.000
    N3609    N        0.58818    0.48587    0.64405    1.000
    Si3610   Si       0.62125    0.43099    0.69610    1.000
    N3611    N        0.57863    0.43839    0.69018    1.000
    N3612    N        0.62584    0.50745    0.59337    1.000
    N3613    N        0.61578    0.34751    0.76260    1.000
    N3614    N        0.58420    0.29103    0.78966    1.000
    Si3615   Si       0.59879    0.30912    0.75206    1.000
    Si3616   Si       0.59282    0.38022    0.74816    1.000
    N3617    N        0.60235    0.38959    0.84435    1.000
    N3618    N        0.61895    0.48341    0.76119    1.000
    N3619    N        0.58755    0.46049    0.81700    1.000
    Si3620   Si       0.62611    0.46621    0.80012    1.000
    Si3621   Si       0.58027    0.41793    0.81540    1.000
    N3622    N        0.61996    0.26876    0.90167    1.000
    N3623    N        0.62062    0.33927    0.89712    1.000
    N3624    N        0.60069    0.30943    0.95987    1.000
    Si3625   Si       0.60175    0.30613    0.91683    1.000
    Si3626   Si       0.60814    0.38008    0.88865    1.000
    N3627    N        0.64078    0.42428    0.80219    1.000
    N3628    N        0.61522    0.40040    0.97042    1.000
    Si3629   Si       0.60863    0.43229    0.94122    1.000
    N3630    N        0.63237    0.48911    0.88447    1.000
    N3631    N        0.62451    0.41681    0.90578    1.000
    N3632    N        0.62618    0.47138    0.95128    1.000
    Si3633   Si       0.60379    0.61482    0.08846    1.000
    Si3634   Si       0.59594    0.62387    0.02473    1.000
    N3635    N        0.62113    0.59091    0.99981    1.000
    Si3636   Si       0.62640    0.54802    0.01423    1.000
    N3637    N        0.61097    0.51719    0.11602    1.000
    N3638    N        0.59728    0.51690    0.00683    1.000
    N3639    N        0.58140    0.59481    0.05727    1.000
    N3640    N        0.63485    0.58994    0.10680    1.000
    Si3641   Si       0.63404    0.54679    0.09590    1.000
    N3642    N        0.62117    0.64276    0.05820    1.000
    N3643    N        0.60575    0.70915    0.06097    1.000
    Si3644   Si       0.58425    0.69637    0.02541    1.000
    Si3645   Si       0.57896    0.73658    0.08201    1.000
    N3646    N        0.57558    0.73645    0.00485    1.000
    Si3647   Si       0.61411    0.70639    0.14146    1.000
    Si3648   Si       0.60066    0.61026    0.16562    1.000
    N3649    N        0.61093    0.56955    0.17661    1.000
    N3650    N        0.58135    0.61897    0.12607    1.000
    N3651    N        0.59446    0.54324    0.23901    1.000
    Si3652   Si       0.60501    0.62587    0.24217    1.000
    N3653    N        0.58264    0.62717    0.20335    1.000
    N3654    N        0.60066    0.69743    0.18387    1.000
    N3655    N        0.62617    0.74540    0.15720    1.000
    Si3656   Si       0.59715    0.74015    0.18989    1.000
    N3657    N        0.61229    0.60955    0.32585    1.000
    N3658    N        0.61804    0.54072    0.34175    1.000
    Si3659   Si       0.58489    0.53542    0.36652    1.000
    N3660    N        0.63082    0.59590    0.25983    1.000
    Si3661   Si       0.61252    0.60220    0.36775    1.000
    N3662    N        0.61403    0.70624    0.27975    1.000
    N3663    N        0.60428    0.73618    0.34844    1.000
    N3664    N        0.58028    0.64283    0.27350    1.000
    Si3665   Si       0.62908    0.74346    0.25549    1.000
    Si3666   Si       0.63051    0.72621    0.31544    1.000
    Si3667   Si       0.61619    0.64959    0.42355    1.000
    Si3668   Si       0.61102    0.59937    0.48494    1.000
    N3669    N        0.62260    0.61363    0.44685    1.000
    N3670    N        0.57821    0.57613    0.37988    1.000
    Si3671   Si       0.61882    0.53432    0.49632    1.000
    N3672    N        0.61771    0.74178    0.45575    1.000
    N3673    N        0.59428    0.67879    0.44839    1.000
    N3674    N        0.59826    0.63880    0.38699    1.000
    N3675    N        0.57909    0.56898    0.48860    1.000
    Si3676   Si       0.62469    0.50720    0.42855    1.000
    N3677    N        0.60254    0.50606    0.46361    1.000
    N3678    N        0.60503    0.52368    0.53614    1.000
    Si3679   Si       0.57758    0.72848    0.53239    1.000
    N3680    N        0.61184    0.63647    0.51180    1.000
    N3681    N        0.59890    0.72248    0.57181    1.000
    Si3682   Si       0.62120    0.68558    0.58260    1.000
    N3683    N        0.58573    0.65786    0.57716    1.000
    Si3684   Si       0.57894    0.65012    0.53458    1.000
    Si3685   Si       0.59829    0.75451    0.59975    1.000
    Si3686   Si       0.60121    0.52258    0.62423    1.000
    N3687    N        0.60883    0.55466    0.73453    1.000
    N3688    N        0.61485    0.54552    0.65881    1.000
    Si3689   Si       0.59094    0.54731    0.69311    1.000
    N3690    N        0.61210    0.61385    0.70310    1.000
    Si3691   Si       0.61412    0.59838    0.74154    1.000
    N3692    N        0.57680    0.50898    0.70865    1.000
    N3693    N        0.61130    0.74614    0.64170    1.000
    Si3694   Si       0.60802    0.63875    0.66777    1.000
    Si3695   Si       0.60410    0.70113    0.71647    1.000
    N3696    N        0.61178    0.67944    0.68109    1.000
    N3697    N        0.58986    0.73986    0.70558    1.000
    Si3698   Si       0.60999    0.70295    0.64575    1.000
    N3699    N        0.63685    0.63139    0.63657    1.000
    N3700    N        0.59108    0.52423    0.84268    1.000
    N3701    N        0.58487    0.61877    0.76522    1.000
    Si3702   Si       0.63153    0.51479    0.85168    1.000
    Si3703   Si       0.59183    0.51507    0.74940    1.000
    Si3704   Si       0.63142    0.59218    0.86687    1.000
    Si3705   Si       0.59605    0.66079    0.77674    1.000
    Si3706   Si       0.60441    0.68149    0.85311    1.000
    N3707    N        0.59100    0.72318    0.86303    1.000
    N3708    N        0.58554    0.67218    0.81730    1.000
    N3709    N        0.59123    0.58501    0.88195    1.000
    Si3710   Si       0.59814    0.58368    0.96152    1.000
    N3711    N        0.60043    0.62322    0.94150    1.000
    N3712    N        0.61956    0.54529    0.94922    1.000
    Si3713   Si       0.60182    0.50664    0.96415    1.000
    N3714    N        0.59978    0.66778    0.99471    1.000
    N3715    N        0.62680    0.75015    0.95016    1.000
    Si3716   Si       0.58292    0.74056    0.96257    1.000
    Si3717   Si       0.62991    0.64039    0.91538    1.000
    N3718    N        0.60244    0.65269    0.88434    1.000
    N3719    N        0.57606    0.68506    0.74646    1.000
    Si3720   Si       0.61992    0.81114    0.08201    1.000
    N3721    N        0.59146    0.77789    0.07179    1.000
    N3722    N        0.60311    0.79434    0.00543    1.000
    N3723    N        0.61208    0.85353    0.07317    1.000
    Si3724   Si       0.63377    0.87601    0.04245    1.000
    N3725    N        0.59900    0.97533    0.23159    1.000
    Si3726   Si       0.59228    0.93670    0.01335    1.000
    N3727    N        0.59751    0.90010    0.03633    1.000
    Si3728   Si       0.61325    0.99541    0.05238    1.000
    N3729    N        0.63436    0.94230    0.00340    1.000
    N3730    N        0.59220    0.96843    0.12142    1.000
    Si3731   Si       0.63321    0.95826    0.11334    1.000
    N3732    N        0.60497    0.80586    0.17924    1.000
    N3733    N        0.61544    0.87070    0.16934    1.000
    Si3734   Si       0.59505    0.80266    0.22111    1.000
    Si3735   Si       0.60002    0.83635    0.14868    1.000
    N3736    N        0.60298    0.76030    0.22841    1.000
    N3737    N        0.63156    0.81951    0.12379    1.000
    N3738    N        0.62426    0.82712    0.24245    1.000
    Si3739   Si       0.58512    0.89444    0.19125    1.000
    Si3740   Si       0.62663    0.94237    0.23358    1.000
    N3741    N        0.61753    0.92401    0.19627    1.000
    N3742    N        0.57916    0.97379    0.03357    1.000
    N3743    N        0.57625    0.87369    0.23046    1.000
    N3744    N        0.59840    0.80522    0.34128    1.000
    Si3745   Si       0.62196    0.84381    0.33487    1.000
    Si3746   Si       0.59895    0.85539    0.26409    1.000
    N3747    N        0.60003    0.87284    0.35740    1.000
    N3748    N        0.62669    0.86584    0.29653    1.000
    N3749    N        0.59199    0.98162    0.29824    1.000
    N3750    N        0.61358    0.92355    0.27371    1.000
    Si3751   Si       0.62852    0.97915    0.32195    1.000
    Si3752   Si       0.59729    0.91662    0.35713    1.000
    N3753    N        0.61991    0.00097    0.36038    1.000
    Si3754   Si       0.57810    0.93985    0.29052    1.000
    Si3755   Si       0.60846    0.77431    0.37110    1.000
    Si3756   Si       0.61000    0.83895    0.44364    1.000
    Si3757   Si       0.60240    0.77481    0.47901    1.000
    N3758    N        0.58633    0.82152    0.41142    1.000
    N3759    N        0.58517    0.85575    0.47346    1.000
    N3760    N        0.62816    0.87197    0.42477    1.000
    N3761    N        0.63289    0.80120    0.45963    1.000
    N3762    N        0.60665    0.93479    0.39606    1.000
    N3763    N        0.63098    0.93440    0.33472    1.000
    Si3764   Si       0.61537    0.91364    0.43263    1.000
    N3765    N        0.62658    0.98934    0.43134    1.000
    N3766    N        0.59160    0.92871    0.47114    1.000
    Si3767   Si       0.62620    0.97284    0.39217    1.000
    Si3768   Si       0.58018    0.96136    0.49750    1.000
    N3769    N        0.60570    0.83699    0.54754    1.000
    Si3770   Si       0.62083    0.79611    0.54460    1.000
    N3771    N        0.62617    0.78134    0.58386    1.000
    N3772    N        0.60094    0.76473    0.52243    1.000
    N3773    N        0.60280    0.92462    0.60330    1.000
    N3774    N        0.61386    0.89839    0.52775    1.000
    Si3775   Si       0.59850    0.96589    0.60759    1.000
    Si3776   Si       0.59358    0.91701    0.56014    1.000
    N3777    N        0.62864    0.97994    0.57957    1.000
    Si3778   Si       0.62241    0.00267    0.54091    1.000
    N3779    N        0.58801    0.86043    0.71026    1.000
    N3780    N        0.60435    0.86163    0.64495    1.000
    Si3781   Si       0.60974    0.76769    0.67894    1.000
    N3782    N        0.58207    0.79854    0.67247    1.000
    N3783    N        0.60075    0.98712    0.73320    1.000
    N3784    N        0.61215    0.92295    0.67244    1.000
    Si3785   Si       0.63276    0.95545    0.74345    1.000
    N3786    N        0.62549    0.91186    0.73723    1.000
    Si3787   Si       0.61870    0.89050    0.70123    1.000
    N3788    N        0.61484    0.98371    0.64361    1.000
    Si3789   Si       0.59144    0.90291    0.63831    1.000
    Si3790   Si       0.57915    0.84108    0.67458    1.000
    Si3791   Si       0.58479    0.89367    0.49563    1.000
    N3792    N        0.60504    0.99712    0.49993    1.000
    N3793    N        0.60370    0.82543    0.76812    1.000
    N3794    N        0.59408    0.77894    0.82027    1.000
    Si3795   Si       0.60389    0.78160    0.77700    1.000
    Si3796   Si       0.61282    0.76141    0.85548    1.000
    Si3797   Si       0.63241    0.87581    0.85183    1.000
    N3798    N        0.62564    0.87452    0.80886    1.000
    N3799    N        0.61681    0.98607    0.85389    1.000
    N3800    N        0.61847    0.94788    0.78700    1.000
    Si3801   Si       0.60129    0.90732    0.79271    1.000
    Si3802   Si       0.59568    0.94752    0.85515    1.000
    N3803    N        0.63370    0.92000    0.85930    1.000
    N3804    N        0.59603    0.86260    0.87277    1.000
    Si3805   Si       0.59154    0.82937    0.89861    1.000
    N3806    N        0.60769    0.78928    0.88783    1.000
    N3807    N        0.61161    0.82500    0.94049    1.000
    Si3808   Si       0.63040    0.78665    0.92660    1.000
    Si3809   Si       0.58153    0.81145    0.97019    1.000
    N3810    N        0.62091    0.89383    0.95132    1.000
    N3811    N        0.61068    0.95730    0.94143    1.000
    Si3812   Si       0.58506    0.92072    0.93740    1.000
    Si3813   Si       0.58995    0.99539    0.93915    1.000
    N3814    N        0.65558    0.08670    0.08187    1.000
    Si3815   Si       0.65836    0.04565    0.01963    1.000
    Si3816   Si       0.65761    0.24948    0.08708    1.000
    N3817    N        0.65587    0.20721    0.09819    1.000
    N3818    N        0.66137    0.17940    0.00509    1.000
    N3819    N        0.68554    0.25275    0.05473    1.000
    N3820    N        0.63333    0.15359    0.06205    1.000
    N3821    N        0.67583    0.18743    0.16905    1.000
    N3822    N        0.69208    0.03545    0.17527    1.000
    N3823    N        0.64977    0.07509    0.22124    1.000
    N3824    N        0.68639    0.11209    0.16762    1.000
    Si3825   Si       0.68211    0.04703    0.21631    1.000
    Si3826   Si       0.65615    0.02230    0.15676    1.000
    Si3827   Si       0.66362    0.11263    0.20664    1.000
    N3828    N        0.68644    0.12833    0.24059    1.000
    Si3829   Si       0.66563    0.14827    0.15468    1.000
    N3830    N        0.66592    0.24921    0.23831    1.000
    N3831    N        0.69647    0.05257    0.03971    1.000
    N3832    N        0.66485    0.01067    0.23436    1.000
    N3833    N        0.65752    0.08285    0.28517    1.000
    N3834    N        0.65928    0.06339    0.35751    1.000
    Si3835   Si       0.64270    0.08954    0.32735    1.000
    N3836    N        0.64120    0.13156    0.33422    1.000
    Si3837   Si       0.67296    0.16237    0.33799    1.000
    Si3838   Si       0.68371    0.16755    0.25802    1.000
    N3839    N        0.64291    0.19130    0.35322    1.000
    N3840    N        0.69117    0.17238    0.29923    1.000
    N3841    N        0.67927    0.25579    0.35311    1.000
    N3842    N        0.64532    0.18519    0.24877    1.000
    Si3843   Si       0.64664    0.23078    0.37235    1.000
    Si3844   Si       0.65293    0.06460    0.42946    1.000
    N3845    N        0.68356    0.03562    0.41608    1.000
    N3846    N        0.68081    0.09673    0.43758    1.000
    Si3847   Si       0.67281    0.12397    0.47088    1.000
    Si3848   Si       0.67571    0.20039    0.48226    1.000
    N3849    N        0.65310    0.24110    0.41500    1.000
    Si3850   Si       0.66697    0.08242    0.59850    1.000
    N3851    N        0.66871    0.05808    0.56331    1.000
    N3852    N        0.64865    0.11632    0.57649    1.000
    N3853    N        0.67587    0.10828    0.51323    1.000
    Si3854   Si       0.64907    0.09050    0.54229    1.000
    Si3855   Si       0.69187    0.02220    0.55543    1.000
    N3856    N        0.66738    0.23168    0.51226    1.000
    N3857    N        0.66200    0.17596    0.54961    1.000
    Si3858   Si       0.66909    0.21717    0.55502    1.000
    Si3859   Si       0.64785    0.15772    0.58611    1.000
    Si3860   Si       0.69073    0.14695    0.52979    1.000
    N3861    N        0.68052    0.15928    0.61742    1.000
    N3862    N        0.64866    0.09485    0.69008    1.000
    Si3863   Si       0.67134    0.08751    0.72784    1.000
    Si3864   Si       0.64828    0.05852    0.66802    1.000
    N3865    N        0.68725    0.03686    0.66542    1.000
    N3866    N        0.65065    0.05053    0.74244    1.000
    N3867    N        0.63808    0.06886    0.62568    1.000
    Si3868   Si       0.63992    0.25198    0.65270    1.000
    N3869    N        0.68119    0.23907    0.73899    1.000
    Si3870   Si       0.67150    0.18019    0.65459    1.000
    Si3871   Si       0.67987    0.19582    0.72812    1.000
    N3872    N        0.66969    0.22183    0.63909    1.000
    Si3873   Si       0.63885    0.24991    0.73092    1.000
    N3874    N        0.69543    0.18249    0.69007    1.000
    N3875    N        0.63655    0.18690    0.72891    1.000
    Si3876   Si       0.67699    0.03030    0.76950    1.000
    N3877    N        0.66304    0.12106    0.75234    1.000
    N3878    N        0.64862    0.01400    0.79828    1.000
    N3879    N        0.63785    0.04335    0.86309    1.000
    Si3880   Si       0.68102    0.12865    0.85501    1.000
    N3881    N        0.66154    0.13910    0.81694    1.000
    Si3882   Si       0.68891    0.13922    0.78231    1.000
    Si3883   Si       0.66722    0.07024    0.87706    1.000
    N3884    N        0.65079    0.11288    0.88280    1.000
    N3885    N        0.67958    0.04700    0.91052    1.000
    Si3886   Si       0.65088    0.05216    0.94281    1.000
    N3887    N        0.67484    0.04765    0.97825    1.000
    N3888    N        0.64044    0.09415    0.94885    1.000
    Si3889   Si       0.64225    0.00746    0.88991    1.000
    Si3890   Si       0.63651    0.12822    0.92146    1.000
    Si3891   Si       0.65972    0.19574    0.96535    1.000
    N3892    N        0.65857    0.16636    0.93027    1.000
    N3893    N        0.64480    0.21317    0.86974    1.000
    Si3894   Si       0.67169    0.19127    0.89519    1.000
    Si3895   Si       0.64564    0.25659    0.86660    1.000
    Si3896   Si       0.67553    0.32008    0.09744    1.000
    Si3897   Si       0.68208    0.29138    0.03456    1.000
    N3898    N        0.64231    0.34412    0.08394    1.000
    N3899    N        0.66290    0.28240    0.11266    1.000
    N3900    N        0.63772    0.29457    0.02537    1.000
    N3901    N        0.66856    0.47155    0.03797    1.000
    N3902    N        0.65812    0.46149    0.10401    1.000
    Si3903   Si       0.65867    0.42869    0.04210    1.000
    Si3904   Si       0.68461    0.48933    0.07505    1.000
    N3905    N        0.67462    0.40406    0.00711    1.000
    Si3906   Si       0.67448    0.42295    0.11025    1.000
    Si3907   Si       0.68839    0.50043    0.01099    1.000
    N3908    N        0.69337    0.41381    0.06639    1.000
    Si3909   Si       0.63978    0.28843    0.15021    1.000
    Si3910   Si       0.66037    0.28719    0.21738    1.000
    N3911    N        0.67413    0.29525    0.17737    1.000
    N3912    N        0.64123    0.35674    0.20823    1.000
    Si3913   Si       0.67319    0.38739    0.20873    1.000
    N3914    N        0.64013    0.48530    0.22053    1.000
    Si3915   Si       0.65102    0.44391    0.23554    1.000
    Si3916   Si       0.67384    0.50588    0.20471    1.000
    N3917    N        0.64300    0.40069    0.13171    1.000
    N3918    N        0.64912    0.42193    0.19807    1.000
    Si3919   Si       0.64335    0.49294    0.13135    1.000
    N3920    N        0.67913    0.31431    0.24462    1.000
    Si3921   Si       0.67868    0.29428    0.33197    1.000
    N3922    N        0.65024    0.35460    0.29675    1.000
    Si3923   Si       0.65104    0.34689    0.25120    1.000
    N3924    N        0.68792    0.32395    0.36347    1.000
    N3925    N        0.63644    0.29494    0.32127    1.000
    N3926    N        0.69695    0.38641    0.48870    1.000
    N3927    N        0.67332    0.38833    0.25159    1.000
    Si3928   Si       0.67952    0.38626    0.29463    1.000
    N3929    N        0.66308    0.41441    0.32175    1.000
    N3930    N        0.67787    0.34158    0.43212    1.000
    N3931    N        0.67537    0.29215    0.47183    1.000
    Si3932   Si       0.67103    0.35396    0.38873    1.000
    Si3933   Si       0.64648    0.32179    0.45675    1.000
    N3934    N        0.67315    0.41355    0.43713    1.000
    Si3935   Si       0.67889    0.49023    0.47229    1.000
    Si3936   Si       0.66763    0.42011    0.47932    1.000
    N3937    N        0.65715    0.47892    0.43768    1.000
    Si3938   Si       0.65755    0.44320    0.40972    1.000
    N3939    N        0.68523    0.45297    0.37610    1.000
    Si3940   Si       0.69844    0.41910    0.34950    1.000
    N3941    N        0.68853    0.45340    0.49400    1.000
    N3942    N        0.69199    0.45025    0.24253    1.000
    N3943    N        0.66631    0.35730    0.54459    1.000
    N3944    N        0.66285    0.29105    0.54088    1.000
    Si3945   Si       0.68206    0.27138    0.50744    1.000
    Si3946   Si       0.64943    0.34685    0.58468    1.000
    N3947    N        0.68784    0.32671    0.59588    1.000
    Si3948   Si       0.69187    0.32109    0.55289    1.000
    N3949    N        0.63984    0.38242    0.60352    1.000
    N3950    N        0.66171    0.46734    0.55662    1.000
    Si3951   Si       0.65325    0.48181    0.73642    1.000
    N3952    N        0.66407    0.28913    0.65621    1.000
    N3953    N        0.66627    0.34299    0.69746    1.000
    Si3954   Si       0.64002    0.31165    0.68738    1.000
    Si3955   Si       0.66423    0.47236    0.65818    1.000
    N3956    N        0.64117    0.47028    0.69477    1.000
    N3957    N        0.64895    0.44958    0.62641    1.000
    N3958    N        0.64044    0.40224    0.67163    1.000
    Si3959   Si       0.65929    0.40680    0.63285    1.000
    Si3960   Si       0.65794    0.38335    0.70877    1.000
    N3961    N        0.66315    0.35758    0.81845    1.000
    Si3962   Si       0.65651    0.34315    0.77711    1.000
    N3963    N        0.67460    0.30310    0.77763    1.000
    Si3964   Si       0.68164    0.28716    0.82080    1.000
    N3965    N        0.67810    0.37593    0.75335    1.000
    N3966    N        0.68188    0.27641    0.86608    1.000
    N3967    N        0.63997    0.26913    0.82523    1.000
    Si3968   Si       0.69178    0.31208    0.96482    1.000
    N3969    N        0.67847    0.44894    0.74859    1.000
    Si3970   Si       0.64391    0.39431    0.83212    1.000
    Si3971   Si       0.65831    0.41371    0.76497    1.000
    N3972    N        0.65256    0.49563    0.81769    1.000
    N3973    N        0.67345    0.40063    0.86270    1.000
    N3974    N        0.67880    0.39251    0.93573    1.000
    N3975    N        0.66127    0.34006    0.97908    1.000
    N3976    N        0.68821    0.28243    0.93303    1.000
    Si3977   Si       0.65690    0.38343    0.97280    1.000
    N3978    N        0.68699    0.45614    0.90859    1.000
    Si3979   Si       0.66842    0.41822    0.90162    1.000
    Si3980   Si       0.65456    0.48301    0.92060    1.000
    N3981    N        0.67109    0.52498    0.09933    1.000
    Si3982   Si       0.68766    0.55488    0.06170    1.000
    N3983    N        0.64205    0.54930    0.05285    1.000
    Si3984   Si       0.66570    0.60309    0.00128    1.000
    N3985    N        0.67653    0.68951    0.05947    1.000
    Si3986   Si       0.68908    0.67879    0.01912    1.000
    N3987    N        0.66723    0.64632    0.00262    1.000
    N3988    N        0.63797    0.68289    0.11758    1.000
    N3989    N        0.69440    0.63624    0.12177    1.000
    Si3990   Si       0.63586    0.68222    0.07495    1.000
    N3991    N        0.66145    0.51522    0.16279    1.000
    Si3992   Si       0.65227    0.55555    0.17678    1.000
    Si3993   Si       0.66468    0.60715    0.13354    1.000
    N3994    N        0.66584    0.55076    0.21713    1.000
    N3995    N        0.68252    0.57526    0.15474    1.000
    N3996    N        0.63923    0.62873    0.16273    1.000
    N3997    N        0.68128    0.67663    0.18259    1.000
    Si3998   Si       0.67933    0.67437    0.13766    1.000
    N3999    N        0.66004    0.71809    0.23957    1.000
    N4000    N        0.63436    0.65656    0.23259    1.000
    Si4001   Si       0.65806    0.64485    0.19942    1.000
    N4002    N        0.69417    0.58668    0.03292    1.000
    N4003    N        0.67895    0.58752    0.32241    1.000
    N4004    N        0.65360    0.53486    0.28250    1.000
    Si4005   Si       0.64761    0.60688    0.29857    1.000
    N4006    N        0.68635    0.51431    0.33161    1.000
    Si4007   Si       0.64364    0.51402    0.32090    1.000
    Si4008   Si       0.69012    0.60096    0.36339    1.000
    Si4009   Si       0.63612    0.55433    0.24888    1.000
    N4010    N        0.66093    0.64890    0.29366    1.000
    N4011    N        0.66845    0.70748    0.31901    1.000
    Si4012   Si       0.64855    0.68076    0.26359    1.000
    Si4013   Si       0.68499    0.66685    0.32358    1.000
    N4014    N        0.65244    0.60119    0.38713    1.000
    Si4015   Si       0.65317    0.58599    0.43034    1.000
    N4016    N        0.64226    0.54528    0.42603    1.000
    Si4017   Si       0.68785    0.58986    0.49170    1.000
    N4018    N        0.69291    0.58938    0.44832    1.000
    N4019    N        0.64486    0.57349    0.49089    1.000
    N4020    N        0.68168    0.73680    0.43801    1.000
    N4021    N        0.64807    0.67846    0.41455    1.000
    Si4022   Si       0.68544    0.67784    0.39397    1.000
    N4023    N        0.66114    0.68617    0.48036    1.000
    Si4024   Si       0.63282    0.70207    0.45124    1.000
    N4025    N        0.67877    0.53881    0.55854    1.000
    N4026    N        0.69252    0.61614    0.58037    1.000
    N4027    N        0.65956    0.51299    0.50440    1.000
    Si4028   Si       0.64576    0.51016    0.54943    1.000
    N4029    N        0.68505    0.62798    0.51323    1.000
    Si4030   Si       0.69216    0.57148    0.58269    1.000
    N4031    N        0.67854    0.74465    0.55268    1.000
    Si4032   Si       0.68506    0.70359    0.56280    1.000
    Si4033   Si       0.65073    0.65740    0.51129    1.000
    N4034    N        0.65177    0.67756    0.55282    1.000
    N4035    N        0.64553    0.69757    0.61995    1.000
    Si4036   Si       0.67341    0.61779    0.62130    1.000
    N4037    N        0.67065    0.57526    0.62140    1.000
    N4038    N        0.67515    0.51429    0.65101    1.000
    N4039    N        0.67345    0.56296    0.69494    1.000
    Si4040   Si       0.65507    0.55262    0.73262    1.000
    Si4041   Si       0.65668    0.55378    0.65582    1.000
    Si4042   Si       0.66105    0.74858    0.73538    1.000
    N4043    N        0.64365    0.70870    0.73459    1.000
    N4044    N        0.68347    0.64839    0.72237    1.000
    Si4045   Si       0.68429    0.71307    0.63595    1.000
    Si4046   Si       0.69490    0.61317    0.74359    1.000
    N4047    N        0.68659    0.75947    0.63567    1.000
    Si4048   Si       0.65461    0.62074    0.79145    1.000
    N4049    N        0.64931    0.55338    0.85882    1.000
    N4050    N        0.65678    0.59257    0.75451    1.000
    N4051    N        0.67055    0.51930    0.75145    1.000
    Si4052   Si       0.68661    0.51036    0.79204    1.000
    N4053    N        0.66386    0.70909    0.99452    1.000
    N4054    N        0.63355    0.60837    0.82727    1.000
    Si4055   Si       0.67169    0.71659    0.85904    1.000
    N4056    N        0.64701    0.68583    0.84483    1.000
    N4057    N        0.63789    0.65613    0.77352    1.000
    Si4058   Si       0.66901    0.67809    0.75041    1.000
    N4059    N        0.67708    0.72256    0.90229    1.000
    N4060    N        0.68048    0.51584    0.93255    1.000
    N4061    N        0.68048    0.58728    0.96317    1.000
    N4062    N        0.65578    0.61380    0.89569    1.000
    Si4063   Si       0.66187    0.54750    0.95595    1.000
    N4064    N        0.66154    0.52995    0.99519    1.000
    N4065    N        0.65339    0.66817    0.93822    1.000
    Si4066   Si       0.66628    0.74525    0.97435    1.000
    Si4067   Si       0.68795    0.68268    0.91872    1.000
    Si4068   Si       0.64086    0.67186    0.97892    1.000
    N4069    N        0.65324    0.80144    0.05613    1.000
    Si4070   Si       0.64219    0.80843    0.01486    1.000
    N4071    N        0.63906    0.85091    0.00666    1.000
    Si4072   Si       0.64459    0.90160    0.16654    1.000
    N4073    N        0.67270    0.88202    0.06224    1.000
    Si4074   Si       0.67480    0.89958    0.10335    1.000
    Si4075   Si       0.65836    0.96303    0.03272    1.000
    N4076    N        0.64510    0.00636    0.02767    1.000
    N4077    N        0.63677    0.96201    0.07032    1.000
    Si4078   Si       0.67610    0.82723    0.12986    1.000
    N4079    N        0.67741    0.79681    0.15924    1.000
    N4080    N        0.68850    0.87069    0.23948    1.000
    N4081    N        0.68418    0.87067    0.13499    1.000
    Si4082   Si       0.63559    0.78700    0.15677    1.000
    N4083    N        0.66886    0.94597    0.24373    1.000
    N4084    N        0.64106    0.91867    0.12738    1.000
    N4085    N        0.68267    0.90760    0.18677    1.000
    N4086    N        0.66089    0.98695    0.13416    1.000
    N4087    N        0.66227    0.82832    0.34122    1.000
    Si4088   Si       0.66633    0.79366    0.31032    1.000
    N4089    N        0.63952    0.76541    0.29124    1.000
    N4090    N        0.69039    0.81620    0.28192    1.000
    Si4091   Si       0.69025    0.86358    0.34488    1.000
    N4092    N        0.69029    0.77189    0.33639    1.000
    Si4093   Si       0.66863    0.83201    0.24540    1.000
    N4094    N        0.68334    0.90056    0.31577    1.000
    N4095    N        0.66461    0.99124    0.30304    1.000
    Si4096   Si       0.68213    0.98335    0.26323    1.000
    Si4097   Si       0.67253    0.92815    0.35524    1.000
    Si4098   Si       0.64217    0.90599    0.30053    1.000
    Si4099   Si       0.67411    0.89840    0.47534    1.000
    Si4100   Si       0.67957    0.80029    0.37313    1.000
    Si4101   Si       0.66534    0.81917    0.48527    1.000
    N4102    N        0.64579    0.77650    0.39245    1.000
    Si4103   Si       0.67088    0.87239    0.41378    1.000
    N4104    N        0.68149    0.83353    0.40386    1.000
    Si4105   Si       0.64641    0.76653    0.43490    1.000
    N4106    N        0.65665    0.86163    0.49010    1.000
    N4107    N        0.67022    0.96148    0.39031    1.000
    N4108    N        0.68059    0.89046    0.37696    1.000
    N4109    N        0.65404    0.92698    0.44854    1.000
    Si4110   Si       0.66483    0.96642    0.43481    1.000
    N4111    N        0.68663    0.98471    0.46627    1.000
    N4112    N        0.65922    0.80293    0.52425    1.000
    N4113    N        0.67655    0.86829    0.55437    1.000
    Si4114   Si       0.65964    0.78619    0.60992    1.000
    Si4115   Si       0.63833    0.86277    0.53139    1.000
    N4116    N        0.68940    0.80662    0.58699    1.000
    Si4117   Si       0.69076    0.78519    0.54756    1.000
    Si4118   Si       0.66639    0.96645    0.59517    1.000
    N4119    N        0.68306    0.93105    0.57809    1.000
    N4120    N        0.68341    0.92442    0.50846    1.000
    N4121    N        0.66482    0.99817    0.53051    1.000
    Si4122   Si       0.68574    0.96816    0.50732    1.000
    N4123    N        0.69307    0.00076    0.59456    1.000
    Si4124   Si       0.68787    0.91262    0.62029    1.000
    N4125    N        0.67571    0.87086    0.62113    1.000
    N4126    N        0.65048    0.77007    0.69782    1.000
    Si4127   Si       0.67851    0.78823    0.67168    1.000
    Si4128   Si       0.68573    0.85097    0.71357    1.000
    Si4129   Si       0.64778    0.85282    0.64902    1.000
    N4130    N        0.65100    0.81058    0.64591    1.000
    N4131    N        0.65352    0.86638    0.69010    1.000
    Si4132   Si       0.63978    0.95538    0.66785    1.000
    Si4133   Si       0.69561    0.97239    0.72719    1.000
    N4134    N        0.65587    0.96498    0.70776    1.000
    N4135    N        0.66785    0.94761    0.63661    1.000
    Si4136   Si       0.69388    0.90638    0.54600    1.000
    N4137    N        0.66190    0.81521    0.80855    1.000
    Si4138   Si       0.66842    0.77268    0.80701    1.000
    N4139    N        0.67208    0.85385    0.75454    1.000
    N4140    N        0.64376    0.76570    0.77096    1.000
    Si4141   Si       0.68823    0.83623    0.83961    1.000
    Si4142   Si       0.64115    0.84367    0.78159    1.000
    N4143    N        0.65910    0.84755    0.87102    1.000
    N4144    N        0.68201    0.95449    0.82665    1.000
    N4145    N        0.67577    0.96196    0.76399    1.000
    Si4146   Si       0.65275    0.97151    0.80041    1.000
    Si4147   Si       0.67101    0.94055    0.86414    1.000
    N4148    N        0.66974    0.79472    0.91307    1.000
    N4149    N        0.67869    0.85354    0.94740    1.000
    Si4150   Si       0.68035    0.83564    0.90848    1.000
    Si4151   Si       0.63703    0.85438    0.96300    1.000
    N4152    N        0.66933    0.97358    0.89274    1.000
    Si4153   Si       0.63924    0.93231    0.96212    1.000
    N4154    N        0.68255    0.93519    0.95839    1.000
    N4155    N        0.65488    0.75364    0.84356    1.000
    N4156    N        0.66966    0.78242    0.99489    1.000
    N4157    N        0.72473    0.08623    0.09510    1.000
    Si4158   Si       0.72334    0.01828    0.04646    1.000
    Si4159   Si       0.73923    0.12439    0.01968    1.000
    N4160    N        0.69949    0.12408    0.03902    1.000
    N4161    N        0.73043    0.01034    0.00462    1.000
    N4162    N        0.72392    0.21285    0.12230    1.000
    Si4163   Si       0.69449    0.08820    0.06223    1.000
    N4164    N        0.71092    0.19081    0.05949    1.000
    Si4165   Si       0.72333    0.23179    0.05288    1.000
    N4166    N        0.73301    0.16415    0.00190    1.000
    N4167    N        0.74864    0.23362    0.01452    1.000
    Si4168   Si       0.69615    0.18799    0.10041    1.000
    N4169    N        0.69164    0.14821    0.11659    1.000
    Si4170   Si       0.75258    0.04905    0.23115    1.000
    N4171    N        0.74984    0.01257    0.20445    1.000
    Si4172   Si       0.72961    0.01838    0.16550    1.000
    Si4173   Si       0.71378    0.11144    0.13152    1.000
    N4174    N        0.71861    0.24119    0.19104    1.000
    Si4175   Si       0.75203    0.18147    0.22056    1.000
    N4176    N        0.74979    0.18305    0.17793    1.000
    Si4177   Si       0.71452    0.20716    0.16438    1.000
    Si4178   Si       0.70664    0.23626    0.23296    1.000
    Si4179   Si       0.69613    0.16526    0.02558    1.000
    N4180    N        0.71410    0.06463    0.24214    1.000
    N4181    N        0.73738    0.08876    0.99657    1.000
    Si4182   Si       0.72887    0.11476    0.34597    1.000
    N4183    N        0.72134    0.10719    0.30148    1.000
    N4184    N        0.70793    0.01430    0.35417    1.000
    N4185    N        0.69241    0.16019    0.48595    1.000
    Si4186   Si       0.69527    0.09642    0.26788    1.000
    N4187    N        0.70913    0.15269    0.35704    1.000
    Si4188   Si       0.73054    0.19160    0.29198    1.000
    N4189    N        0.73129    0.22760    0.31540    1.000
    Si4190   Si       0.71988    0.24158    0.35642    1.000
    N4191    N        0.71704    0.19610    0.24784    1.000
    N4192    N        0.71806    0.08756    0.37693    1.000
    Si4193   Si       0.70948    0.01433    0.44458    1.000
    Si4194   Si       0.71626    0.10851    0.41592    1.000
    N4195    N        0.73599    0.03406    0.47458    1.000
    Si4196   Si       0.69693    0.05155    0.37689    1.000
    Si4197   Si       0.69798    0.23934    0.42371    1.000
    N4198    N        0.70958    0.21576    0.45958    1.000
    Si4199   Si       0.72608    0.17253    0.45908    1.000
    Si4200   Si       0.73976    0.23379    0.48388    1.000
    N4201    N        0.71439    0.21814    0.39161    1.000
    N4202    N        0.71569    0.15210    0.42212    1.000
    Si4203   Si       0.72932    0.17592    0.38759    1.000
    N4204    N        0.73228    0.03424    0.54708    1.000
    N4205    N        0.70480    0.09723    0.61191    1.000
    Si4206   Si       0.74641    0.01223    0.51185    1.000
    Si4207   Si       0.71209    0.13692    0.60170    1.000
    N4208    N        0.72253    0.14645    0.55801    1.000
    N4209    N        0.70815    0.22051    0.57366    1.000
    Si4210   Si       0.74795    0.22685    0.55535    1.000
    Si4211   Si       0.70510    0.22776    0.61699    1.000
    N4212    N        0.75227    0.20753    0.51659    1.000
    Si4213   Si       0.74520    0.08331    0.62277    1.000
    N4214    N        0.74220    0.04038    0.62259    1.000
    Si4215   Si       0.70664    0.01600    0.63255    1.000
    Si4216   Si       0.71351    0.03831    0.70038    1.000
    N4217    N        0.71354    0.07965    0.71480    1.000
    N4218    N        0.70464    0.01422    0.73514    1.000
    N4219    N        0.73626    0.20585    0.64088    1.000
    N4220    N        0.75231    0.21406    0.71532    1.000
    Si4221   Si       0.73793    0.19134    0.68231    1.000
    Si4222   Si       0.72437    0.07846    0.81733    1.000
    N4223    N        0.72524    0.11843    0.79615    1.000
    N4224    N        0.71117    0.04445    0.79256    1.000
    Si4225   Si       0.74302    0.01656    0.77914    1.000
    N4226    N        0.69704    0.08712    0.85030    1.000
    Si4227   Si       0.74548    0.23406    0.81116    1.000
    N4228    N        0.70400    0.17594    0.76189    1.000
    Si4229   Si       0.74380    0.19282    0.75374    1.000
    N4230    N        0.74633    0.20163    0.83786    1.000
    N4231    N        0.70534    0.25260    0.80429    1.000
    N4232    N        0.74039    0.12559    0.93559    1.000
    Si4233   Si       0.71690    0.02595    0.91485    1.000
    N4234    N        0.73480    0.04889    0.94868    1.000
    Si4235   Si       0.71707    0.04999    0.99091    1.000
    Si4236   Si       0.74086    0.20193    0.98287    1.000
    Si4237   Si       0.73143    0.19282    0.87655    1.000
    N4238    N        0.69938    0.16271    0.87159    1.000
    Si4239   Si       0.70948    0.24384    0.93529    1.000
    N4240    N        0.70530    0.21737    0.90126    1.000
    N4241    N        0.69978    0.21520    0.96699    1.000
    N4242    N        0.73632    0.36342    0.02664    1.000
    Si4243   Si       0.74125    0.33931    0.06169    1.000
    N4244    N        0.70280    0.31715    0.06368    1.000
    N4245    N        0.70824    0.29016    0.99951    1.000
    N4246    N        0.75023    0.37274    0.08983    1.000
    N4247    N        0.74311    0.42236    0.00831    1.000
    Si4248   Si       0.71146    0.39760    0.02877    1.000
    N4249    N        0.71992    0.47171    0.09021    1.000
    Si4250   Si       0.72981    0.42888    0.08810    1.000
    Si4251   Si       0.75096    0.48929    0.11796    1.000
    Si4252   Si       0.73118    0.37410    0.12858    1.000
    Si4253   Si       0.74753    0.36191    0.19676    1.000
    N4254    N        0.70048    0.34089    0.12958    1.000
    Si4255   Si       0.70117    0.32824    0.17032    1.000
    N4256    N        0.70605    0.36833    0.19099    1.000
    N4257    N        0.74111    0.31639    0.18670    1.000
    Si4258   Si       0.74350    0.27641    0.20125    1.000
    Si4259   Si       0.72819    0.46959    0.23245    1.000
    N4260    N        0.71438    0.41372    0.12435    1.000
    N4261    N        0.71571    0.50345    0.20911    1.000
    N4262    N        0.73198    0.27116    0.24256    1.000
    Si4263   Si       0.71765    0.30568    0.26405    1.000
    N4264    N        0.71310    0.29310    0.30507    1.000
    Si4265   Si       0.72002    0.35318    0.35029    1.000
    N4266    N        0.71706    0.37837    0.31474    1.000
    Si4267   Si       0.74765    0.26874    0.31103    1.000
    N4268    N        0.74815    0.33807    0.26946    1.000
    N4269    N        0.75503    0.26841    0.35502    1.000
    N4270    N        0.72097    0.44809    0.32722    1.000
    Si4271   Si       0.70500    0.48196    0.35125    1.000
    N4272    N        0.74978    0.48015    0.26780    1.000
    Si4273   Si       0.75405    0.45039    0.30011    1.000
    N4274    N        0.74676    0.42981    0.38789    1.000
    Si4275   Si       0.69815    0.37862    0.44815    1.000
    N4276    N        0.72110    0.27687    0.42543    1.000
    Si4277   Si       0.70640    0.31096    0.44773    1.000
    N4278    N        0.74894    0.31806    0.46625    1.000
    N4279    N        0.73962    0.37632    0.43632    1.000
    N4280    N        0.70160    0.38473    0.37732    1.000
    Si4281   Si       0.74056    0.38960    0.39514    1.000
    N4282    N        0.73612    0.50071    0.37132    1.000
    Si4283   Si       0.75402    0.37481    0.29243    1.000
    N4284    N        0.72435    0.33803    0.53153    1.000
    N4285    N        0.72690    0.27097    0.50551    1.000
    Si4286   Si       0.74928    0.30903    0.51036    1.000
    Si4287   Si       0.70545    0.37589    0.52916    1.000
    N4288    N        0.71846    0.26992    0.61805    1.000
    N4289    N        0.72361    0.48979    0.53639    1.000
    Si4290   Si       0.72738    0.41234    0.59582    1.000
    N4291    N        0.71336    0.41358    0.55259    1.000
    Si4292   Si       0.69800    0.45418    0.53590    1.000
    N4293    N        0.75567    0.44233    0.61042    1.000
    Si4294   Si       0.70694    0.35073    0.68694    1.000
    N4295    N        0.72336    0.33295    0.65200    1.000
    N4296    N        0.73434    0.34424    0.72307    1.000
    Si4297   Si       0.71833    0.38004    0.73868    1.000
    Si4298   Si       0.69699    0.30310    0.63158    1.000
    Si4299   Si       0.72027    0.42403    0.67191    1.000
    N4300    N        0.74936    0.47164    0.73210    1.000
    Si4301   Si       0.71735    0.50510    0.66150    1.000
    N4302    N        0.70543    0.46375    0.66869    1.000
    N4303    N        0.70218    0.40966    0.63214    1.000
    N4304    N        0.70374    0.39401    0.69857    1.000
    N4305    N        0.71537    0.31662    0.83118    1.000
    Si4306   Si       0.70035    0.26985    0.76329    1.000
    Si4307   Si       0.69858    0.35634    0.84723    1.000
    N4308    N        0.74097    0.28001    0.75269    1.000
    N4309    N        0.73496    0.38126    0.83963    1.000
    Si4310   Si       0.75396    0.30155    0.84595    1.000
    Si4311   Si       0.72121    0.45447    0.75892    1.000
    N4312    N        0.71587    0.47791    0.79524    1.000
    N4313    N        0.73865    0.41273    0.75942    1.000
    N4314    N        0.73904    0.44993    0.85690    1.000
    Si4315   Si       0.75120    0.41017    0.86815    1.000
    Si4316   Si       0.75060    0.47122    0.82011    1.000
    Si4317   Si       0.71309    0.36784    0.92225    1.000
    N4318    N        0.72558    0.33723    0.95119    1.000
    N4319    N        0.74346    0.29595    0.88761    1.000
    Si4320   Si       0.70146    0.30144    0.89512    1.000
    Si4321   Si       0.74745    0.27209    0.99396    1.000
    N4322    N        0.69766    0.34367    0.88968    1.000
    N4323    N        0.74645    0.26116    0.95066    1.000
    Si4324   Si       0.72196    0.50848    0.94178    1.000
    N4325    N        0.71914    0.49024    0.98198    1.000
    N4326    N        0.74925    0.49430    0.90991    1.000
    N4327    N        0.74283    0.39628    0.91095    1.000
    Si4328   Si       0.71794    0.47325    0.88489    1.000
    Si4329   Si       0.73907    0.59319    0.03312    1.000
    Si4330   Si       0.72959    0.61361    0.10789    1.000
    N4331    N        0.70953    0.52116    0.04516    1.000
    N4332    N        0.71082    0.57283    0.09676    1.000
    N4333    N        0.74153    0.62449    0.06559    1.000
    Si4334   Si       0.75298    0.51866    0.04608    1.000
    Si4335   Si       0.72380    0.64982    0.20540    1.000
    N4336    N        0.74569    0.69853    0.07575    1.000
    N4337    N        0.73309    0.67031    0.01510    1.000
    Si4338   Si       0.70427    0.71343    0.08321    1.000
    N4339    N        0.71008    0.75336    0.06568    1.000
    N4340    N        0.73165    0.51740    0.14277    1.000
    Si4341   Si       0.74379    0.52401    0.18431    1.000
    N4342    N        0.73675    0.56494    0.19769    1.000
    Si4343   Si       0.70132    0.57570    0.22202    1.000
    Si4344   Si       0.69967    0.54430    0.12922    1.000
    Si4345   Si       0.72908    0.71500    0.16009    1.000
    N4346    N        0.74382    0.67798    0.17582    1.000
    N4347    N        0.70789    0.73987    0.19001    1.000
    N4348    N        0.71420    0.68206    0.23730    1.000
    N4349    N        0.70323    0.70894    0.12582    1.000
    N4350    N        0.69112    0.61849    0.21170    1.000
    Si4351   Si       0.69021    0.70813    0.21269    1.000
    N4352    N        0.71233    0.56987    0.26313    1.000
    Si4353   Si       0.74240    0.54411    0.35925    1.000
    N4354    N        0.73907    0.55082    0.31589    1.000
    N4355    N        0.73361    0.71430    0.47819    1.000
    Si4356   Si       0.69374    0.55242    0.30151    1.000
    Si4357   Si       0.73733    0.68618    0.27532    1.000
    N4358    N        0.72709    0.72723    0.29030    1.000
    N4359    N        0.72625    0.66735    0.31123    1.000
    Si4360   Si       0.70684    0.73129    0.33217    1.000
    Si4361   Si       0.74006    0.65174    0.34941    1.000
    N4362    N        0.69733    0.64567    0.36259    1.000
    Si4363   Si       0.69666    0.69918    0.46047    1.000
    N4364    N        0.71370    0.51584    0.47399    1.000
    N4365    N        0.71663    0.57196    0.38210    1.000
    Si4366   Si       0.72973    0.58262    0.42756    1.000
    N4367    N        0.70045    0.71325    0.37452    1.000
    Si4368   Si       0.71105    0.74084    0.40739    1.000
    N4369    N        0.71335    0.67295    0.42791    1.000
    Si4370   Si       0.75334    0.51811    0.46165    1.000
    N4371    N        0.75089    0.61795    0.41345    1.000
    N4372    N        0.71527    0.56711    0.51577    1.000
    N4373    N        0.73508    0.56571    0.58183    1.000
    Si4374   Si       0.74684    0.58105    0.54251    1.000
    Si4375   Si       0.70047    0.52432    0.51944    1.000
    N4376    N        0.75124    0.62427    0.54883    1.000
    Si4377   Si       0.71000    0.63821    0.54665    1.000
    Si4378   Si       0.74414    0.70483    0.51823    1.000
    N4379    N        0.70796    0.70624    0.60052    1.000
    N4380    N        0.71790    0.68240    0.54410    1.000
    Si4381   Si       0.74676    0.71334    0.58392    1.000
    Si4382   Si       0.70395    0.65812    0.68538    1.000
    Si4383   Si       0.74872    0.55299    0.62135    1.000
    N4384    N        0.72652    0.58737    0.73074    1.000
    Si4385   Si       0.71768    0.56538    0.69482    1.000
    N4386    N        0.73624    0.52787    0.69428    1.000
    N4387    N        0.73664    0.58053    0.65476    1.000
    Si4388   Si       0.74130    0.62412    0.65309    1.000
    N4389    N        0.73995    0.51039    0.62546    1.000
    N4390    N        0.70220    0.69986    0.67431    1.000
    N4391    N        0.74330    0.64247    0.69086    1.000
    N4392    N        0.69994    0.63653    0.64578    1.000
    N4393    N        0.70404    0.73989    0.73669    1.000
    Si4394   Si       0.72762    0.72509    0.70101    1.000
    Si4395   Si       0.71948    0.58949    0.81278    1.000
    N4396    N        0.70989    0.58780    0.85439    1.000
    N4397    N        0.69883    0.61997    0.78869    1.000
    N4398    N        0.69907    0.54982    0.80696    1.000
    N4399    N        0.71128    0.51438    0.86653    1.000
    Si4400   Si       0.71887    0.72887    0.77539    1.000
    N4401    N        0.71494    0.71678    0.85044    1.000
    Si4402   Si       0.72464    0.65366    0.78767    1.000
    Si4403   Si       0.73478    0.68030    0.86053    1.000
    N4404    N        0.74648    0.66218    0.82360    1.000
    N4405    N        0.69887    0.68890    0.78093    1.000
    Si4406   Si       0.72123    0.58826    0.95404    1.000
    N4407    N        0.73112    0.61042    0.91779    1.000
    N4408    N        0.73842    0.54813    0.94906    1.000
    N4409    N        0.74526    0.59972    0.98926    1.000
    Si4410   Si       0.69896    0.61670    0.88698    1.000
    N4411    N        0.70842    0.74812    0.95523    1.000
    Si4412   Si       0.75157    0.64841    0.92105    1.000
    N4413    N        0.70255    0.66005    0.88307    1.000
    Si4414   Si       0.74707    0.75095    0.97522    1.000
    N4415    N        0.72275    0.67362    0.94237    1.000
    Si4416   Si       0.75071    0.67560    0.97727    1.000
    N4417    N        0.75372    0.65204    0.75657    1.000
    Si4418   Si       0.69097    0.54903    0.84946    1.000
    N4419    N        0.71493    0.82508    0.03769    1.000
    N4420    N        0.70542    0.81566    0.10151    1.000
    Si4421   Si       0.71139    0.86750    0.04591    1.000
    N4422    N        0.73882    0.87363    0.07939    1.000
    Si4423   Si       0.74571    0.83365    0.09569    1.000
    Si4424   Si       0.74620    0.81114    0.00940    1.000
    N4425    N        0.74995    0.76771    0.01446    1.000
    Si4426   Si       0.69697    0.79550    0.06346    1.000
    N4427    N        0.71047    0.88206    0.00375    1.000
    Si4428   Si       0.71964    0.95104    0.06494    1.000
    N4429    N        0.70838    0.99099    0.07573    1.000
    Si4430   Si       0.70066    0.97840    0.11790    1.000
    N4431    N        0.69838    0.93576    0.10123    1.000
    N4432    N        0.69680    0.94399    0.03032    1.000
    Si4433   Si       0.70731    0.78390    0.18679    1.000
    Si4434   Si       0.72153    0.84671    0.22797    1.000
    N4435    N        0.73346    0.86163    0.18907    1.000
    N4436    N        0.74889    0.79515    0.17338    1.000
    Si4437   Si       0.74855    0.94703    0.16778    1.000
    N4438    N        0.74683    0.91183    0.14254    1.000
    N4439    N        0.73098    0.98032    0.14658    1.000
    Si4440   Si       0.71409    0.88899    0.16456    1.000
    N4441    N        0.73762    0.92880    0.20528    1.000
    Si4442   Si       0.69747    0.91486    0.22939    1.000
    Si4443   Si       0.75441    0.75998    0.05689    1.000
    N4444    N        0.69684    0.81124    0.21915    1.000
    Si4445   Si       0.73002    0.82280    0.29432    1.000
    N4446    N        0.72829    0.85010    0.32871    1.000
    N4447    N        0.74837    0.84197    0.25990    1.000
    Si4448   Si       0.72083    0.91959    0.30837    1.000
    N4449    N        0.72104    0.98599    0.27739    1.000
    N4450    N        0.70625    0.95164    0.33947    1.000
    N4451    N        0.72625    0.91636    0.26570    1.000
    Si4452   Si       0.70201    0.99124    0.32004    1.000
    N4453    N        0.70397    0.81144    0.46697    1.000
    Si4454   Si       0.71473    0.81741    0.42599    1.000
    N4455    N        0.71250    0.78173    0.39892    1.000
    Si4456   Si       0.74378    0.87413    0.45331    1.000
    N4457    N        0.75156    0.83959    0.42295    1.000
    Si4458   Si       0.73707    0.81392    0.49281    1.000
    Si4459   Si       0.71092    0.97757    0.37919    1.000
    N4460    N        0.70159    0.88192    0.44608    1.000
    N4461    N        0.73234    0.99225    0.41386    1.000
    N4462    N        0.72702    0.79717    0.53102    1.000
    N4463    N        0.74014    0.85388    0.59250    1.000
    Si4464   Si       0.69449    0.85010    0.58794    1.000
    N4465    N        0.72926    0.91620    0.62794    1.000
    N4466    N        0.72768    0.97413    0.51735    1.000
    N4467    N        0.73768    0.90549    0.55123    1.000
    Si4468   Si       0.74713    0.89634    0.59134    1.000
    N4469    N        0.75209    0.80197    0.63460    1.000
    N4470    N        0.70507    0.81845    0.69128    1.000
    Si4471   Si       0.74381    0.84276    0.69149    1.000
    N4472    N        0.72492    0.87176    0.71648    1.000
    Si4473   Si       0.72979    0.76589    0.63307    1.000
    N4474    N        0.73710    0.75651    0.67565    1.000
    N4475    N        0.73104    0.98670    0.65397    1.000
    Si4476   Si       0.73533    0.94481    0.66348    1.000
    Si4477   Si       0.73778    0.91037    0.73085    1.000
    N4478    N        0.72207    0.94404    0.70514    1.000
    Si4479   Si       0.75354    0.94187    0.53028    1.000
    N4480    N        0.72289    0.81185    0.84065    1.000
    N4481    N        0.73265    0.83392    0.77372    1.000
    Si4482   Si       0.73744    0.80052    0.80176    1.000
    Si4483   Si       0.70671    0.86824    0.77725    1.000
    N4484    N        0.71231    0.76203    0.80166    1.000
    N4485    N        0.70521    0.87327    0.82414    1.000
    Si4486   Si       0.72750    0.75801    0.84622    1.000
    N4487    N        0.74551    0.93766    0.81980    1.000
    Si4488   Si       0.71231    0.94612    0.78983    1.000
    N4489    N        0.71751    0.90832    0.77033    1.000
    N4490    N        0.74343    0.97470    0.76707    1.000
    Si4491   Si       0.74353    0.89551    0.83001    1.000
    Si4492   Si       0.74283    0.98768    0.96821    1.000
    N4493    N        0.72028    0.84395    0.89843    1.000
    Si4494   Si       0.71815    0.85774    0.96525    1.000
    Si4495   Si       0.74117    0.81053    0.88074    1.000
    N4496    N        0.72385    0.77191    0.88739    1.000
    N4497    N        0.74312    0.82372    0.96715    1.000
    Si4498   Si       0.69562    0.75912    0.91619    1.000
    Si4499   Si       0.69559    0.95266    0.92041    1.000
    N4500    N        0.74641    0.94662    0.97999    1.000
    N4501    N        0.73857    0.88938    0.94339    1.000
    Si4502   Si       0.72396    0.88855    0.89989    1.000
    N4503    N        0.71792    0.98717    0.93225    1.000
    N4504    N        0.69835    0.92019    0.89230    1.000
    Si4505   Si       0.70880    0.92567    0.99224    1.000
    N4506    N        0.79782    0.07553    0.09035    1.000
    Si4507   Si       0.80013    0.02939    0.04516    1.000
    N4508    N        0.75995    0.03004    0.06671    1.000
    N4509    N        0.77395    0.12546    0.04532    1.000
    Si4510   Si       0.80765    0.09783    0.05272    1.000
    Si4511   Si       0.75731    0.05804    0.10022    1.000
    N4512    N        0.80788    0.06673    0.02293    1.000
    N4513    N        0.76337    0.24251    0.07579    1.000
    Si4514   Si       0.78460    0.23065    0.03885    1.000
    N4515    N        0.77184    0.16866    0.10776    1.000
    Si4516   Si       0.79082    0.15680    0.07076    1.000
    Si4517   Si       0.76538    0.21346    0.10936    1.000
    N4518    N        0.80387    0.19323    0.04821    1.000
    N4519    N        0.77417    0.07675    0.20573    1.000
    Si4520   Si       0.79204    0.10844    0.23031    1.000
    Si4521   Si       0.77465    0.08137    0.16466    1.000
    N4522    N        0.75622    0.04622    0.14383    1.000
    Si4523   Si       0.80708    0.23889    0.22202    1.000
    N4524    N        0.78184    0.20936    0.24036    1.000
    N4525    N        0.76097    0.14088    0.22816    1.000
    N4526    N        0.79576    0.22275    0.13786    1.000
    Si4527   Si       0.76932    0.15542    0.14890    1.000
    N4528    N        0.81154    0.15453    0.16079    1.000
    N4529    N        0.75419    0.11614    0.14976    1.000
    N4530    N        0.78750    0.09619    0.27131    1.000
    N4531    N        0.77163    0.11441    0.33759    1.000
    N4532    N        0.77686    0.02776    0.26369    1.000
    Si4533   Si       0.76290    0.12315    0.29571    1.000
    N4534    N        0.80274    0.05025    0.32415    1.000
    Si4535   Si       0.80589    0.05960    0.28277    1.000
    Si4536   Si       0.80102    0.00893    0.33712    1.000
    N4537    N        0.76172    0.15638    0.47317    1.000
    Si4538   Si       0.79899    0.18777    0.27557    1.000
    N4539    N        0.76444    0.16694    0.29069    1.000
    Si4540   Si       0.76678    0.06023    0.46110    1.000
    Si4541   Si       0.78166    0.12164    0.45433    1.000
    N4542    N        0.79339    0.03197    0.43908    1.000
    N4543    N        0.79732    0.08723    0.47809    1.000
    N4544    N        0.79100    0.01119    0.37959    1.000
    N4545    N        0.77216    0.18299    0.39053    1.000
    N4546    N        0.77509    0.24771    0.46281    1.000
    Si4547   Si       0.81135    0.17609    0.40319    1.000
    N4548    N        0.75112    0.09447    0.43648    1.000
    N4549    N        0.77482    0.08214    0.59000    1.000
    Si4550   Si       0.75939    0.04236    0.58008    1.000
    N4551    N        0.79157    0.01314    0.58403    1.000
    N4552    N        0.78881    0.00823    0.51017    1.000
    Si4553   Si       0.76297    0.15936    0.57213    1.000
    N4554    N        0.78847    0.14840    0.53901    1.000
    N4555    N        0.76964    0.20066    0.58204    1.000
    Si4556   Si       0.78239    0.17773    0.50723    1.000
    N4557    N        0.75518    0.14400    0.61156    1.000
    Si4558   Si       0.76216    0.01649    0.65410    1.000
    Si4559   Si       0.78940    0.02449    0.71752    1.000
    N4560    N        0.78553    0.10065    0.72040    1.000
    N4561    N        0.76241    0.09714    0.65775    1.000
    N4562    N        0.75605    0.03832    0.69092    1.000
    N4563    N        0.77058    0.16055    0.68111    1.000
    Si4564   Si       0.77642    0.21196    0.62202    1.000
    Si4565   Si       0.78669    0.14440    0.71919    1.000
    N4566    N        0.78562    0.25322    0.63335    1.000
    Si4567   Si       0.78033    0.13450    0.64658    1.000
    Si4568   Si       0.77534    0.24796    0.73964    1.000
    Si4569   Si       0.80903    0.18910    0.68055    1.000
    N4570    N        0.80704    0.18570    0.63740    1.000
    Si4571   Si       0.75320    0.08286    0.69610    1.000
    Si4572   Si       0.79745    0.09898    0.82897    1.000
    Si4573   Si       0.77240    0.03280    0.85420    1.000
    N4574    N        0.77544    0.03826    0.75722    1.000
    N4575    N        0.79661    0.09965    0.78489    1.000
    N4576    N        0.76355    0.07206    0.83756    1.000
    Si4577   Si       0.80109    0.07365    0.74986    1.000
    N4578    N        0.76300    0.00725    0.82054    1.000
    N4579    N        0.78698    0.24839    0.89486    1.000
    Si4580   Si       0.76509    0.13201    0.78991    1.000
    N4581    N        0.78014    0.14027    0.83188    1.000
    Si4582   Si       0.78027    0.17826    0.84823    1.000
    Si4583   Si       0.80136    0.24476    0.85335    1.000
    N4584    N        0.76684    0.15806    0.75495    1.000
    N4585    N        0.76628    0.22297    0.77433    1.000
    Si4586   Si       0.77494    0.03430    0.93258    1.000
    N4587    N        0.79353    0.06967    0.95052    1.000
    Si4588   Si       0.75094    0.08910    0.95510    1.000
    N4589    N        0.75656    0.03054    0.89459    1.000
    N4590    N        0.76805    0.19236    0.95060    1.000
    Si4591   Si       0.79030    0.21281    0.91885    1.000
    Si4592   Si       0.76972    0.15438    0.92675    1.000
    N4593    N        0.77083    0.17906    0.89018    1.000
    Si4594   Si       0.78422    0.28157    0.09216    1.000
    N4595    N        0.77426    0.31096    0.06308    1.000
    Si4596   Si       0.80229    0.30495    0.02878    1.000
    N4597    N        0.81184    0.26233    0.02859    1.000
    N4598    N        0.80009    0.38877    0.03746    1.000
    N4599    N        0.77992    0.46419    0.13590    1.000
    Si4600   Si       0.76801    0.38677    0.00983    1.000
    Si4601   Si       0.78668    0.39388    0.07755    1.000
    N4602    N        0.76847    0.43356    0.07462    1.000
    Si4603   Si       0.78813    0.46985    0.06346    1.000
    N4604    N        0.77127    0.48348    0.02462    1.000
    N4605    N        0.81061    0.33021    0.18758    1.000
    N4606    N        0.77787    0.29147    0.13260    1.000
    Si4607   Si       0.77649    0.32390    0.16174    1.000
    N4608    N        0.76242    0.36497    0.15615    1.000
    N4609    N        0.78268    0.26333    0.19433    1.000
    Si4610   Si       0.80168    0.26301    0.15355    1.000
    N4611    N        0.77776    0.37873    0.22259    1.000
    N4612    N        0.75947    0.44633    0.21227    1.000
    Si4613   Si       0.78350    0.46574    0.17923    1.000
    Si4614   Si       0.77928    0.41787    0.23681    1.000
    N4615    N        0.78503    0.28542    0.29573    1.000
    N4616    N        0.78899    0.35956    0.31189    1.000
    Si4617   Si       0.79785    0.36063    0.35419    1.000
    Si4618   Si       0.78983    0.32742    0.28149    1.000
    Si4619   Si       0.79494    0.28175    0.36852    1.000
    N4620    N        0.76579    0.48663    0.43357    1.000
    Si4621   Si       0.80051    0.41239    0.48926    1.000
    N4622    N        0.78556    0.47328    0.31835    1.000
    N4623    N        0.76210    0.41423    0.27674    1.000
    Si4624   Si       0.78206    0.50334    0.28554    1.000
    N4625    N        0.75670    0.35961    0.36890    1.000
    N4626    N        0.79324    0.28914    0.41074    1.000
    Si4627   Si       0.77145    0.35602    0.45852    1.000
    Si4628   Si       0.76417    0.28415    0.44213    1.000
    N4629    N        0.80705    0.35197    0.43455    1.000
    N4630    N        0.80327    0.46525    0.38744    1.000
    Si4631   Si       0.80434    0.46548    0.43330    1.000
    Si4632   Si       0.76000    0.47177    0.39249    1.000
    N4633    N        0.80248    0.42304    0.44623    1.000
    N4634    N        0.78875    0.37036    0.49535    1.000
    N4635    N        0.78977    0.30906    0.52380    1.000
    Si4636   Si       0.80248    0.27588    0.54899    1.000
    N4637    N        0.77775    0.31618    0.60827    1.000
    Si4638   Si       0.76049    0.27723    0.60816    1.000
    N4639    N        0.76487    0.26473    0.56724    1.000
    N4640    N        0.75602    0.38137    0.60504    1.000
    Si4641   Si       0.81380    0.34447    0.52164    1.000
    Si4642   Si       0.76703    0.47993    0.52460    1.000
    N4643    N        0.78483    0.48646    0.56448    1.000
    Si4644   Si       0.76696    0.48306    0.60400    1.000
    N4645    N        0.77476    0.44191    0.50872    1.000
    Si4646   Si       0.75751    0.34684    0.63015    1.000
    N4647    N        0.77738    0.27652    0.70231    1.000
    N4648    N        0.78236    0.36765    0.65810    1.000
    Si4649   Si       0.76007    0.31040    0.72911    1.000
    Si4650   Si       0.80409    0.26240    0.66990    1.000
    N4651    N        0.79940    0.32457    0.74182    1.000
    N4652    N        0.80055    0.48942    0.70062    1.000
    N4653    N        0.76297    0.42769    0.67726    1.000
    Si4654   Si       0.78078    0.45051    0.70920    1.000
    N4655    N        0.80343    0.48287    0.62742    1.000
    N4656    N        0.80505    0.42659    0.73532    1.000
    Si4657   Si       0.77526    0.40852    0.63701    1.000
    Si4658   Si       0.76665    0.50901    0.72247    1.000
    N4659    N        0.78487    0.33051    0.83672    1.000
    Si4660   Si       0.77735    0.37179    0.82869    1.000
    N4661    N        0.76948    0.26446    0.83056    1.000
    N4662    N        0.79315    0.37960    0.78846    1.000
    N4663    N        0.78144    0.44868    0.79999    1.000
    Si4664   Si       0.78053    0.41576    0.77037    1.000
    N4665    N        0.79190    0.39884    0.86090    1.000
    N4666    N        0.79251    0.31441    0.92687    1.000
    Si4667   Si       0.77022    0.27949    0.91732    1.000
    Si4668   Si       0.76847    0.33258    0.96029    1.000
    N4669    N        0.78239    0.37328    0.97167    1.000
    N4670    N        0.77606    0.44770    0.95741    1.000
    Si4671   Si       0.77410    0.40732    0.94147    1.000
    Si4672   Si       0.78834    0.47543    0.92844    1.000
    Si4673   Si       0.75216    0.46134    0.99270    1.000
    N4674    N        0.77451    0.30649    0.99479    1.000
    N4675    N        0.76519    0.55828    0.03833    1.000
    Si4676   Si       0.80872    0.56123    0.03171    1.000
    N4677    N        0.80931    0.60277    0.01424    1.000
    N4678    N        0.78927    0.74368    0.07841    1.000
    N4679    N        0.79906    0.65729    0.05912    1.000
    Si4680   Si       0.77392    0.71209    0.10592    1.000
    Si4681   Si       0.75623    0.66434    0.05278    1.000
    N4682    N        0.75463    0.61701    0.14451    1.000
    N4683    N        0.80394    0.57812    0.17417    1.000
    Si4684   Si       0.76353    0.59561    0.18309    1.000
    N4685    N        0.75941    0.62592    0.21525    1.000
    N4686    N        0.81329    0.64756    0.18056    1.000
    N4687    N        0.79189    0.67739    0.12296    1.000
    Si4688   Si       0.77741    0.65418    0.15661    1.000
    N4689    N        0.76367    0.73415    0.14214    1.000
    N4690    N        0.77283    0.50835    0.08535    1.000
    N4691    N        0.78398    0.51022    0.18662    1.000
    N4692    N        0.77285    0.60779    0.27991    1.000
    Si4693   Si       0.79494    0.60723    0.31718    1.000
    N4694    N        0.76215    0.61434    0.34746    1.000
    N4695    N        0.77974    0.54221    0.26193    1.000
    Si4696   Si       0.78550    0.63702    0.25063    1.000
    N4697    N        0.77717    0.67732    0.26528    1.000
    N4698    N        0.79723    0.74265    0.27535    1.000
    Si4699   Si       0.76334    0.75064    0.30213    1.000
    Si4700   Si       0.81047    0.65496    0.36490    1.000
    N4701    N        0.78189    0.55485    0.37502    1.000
    Si4702   Si       0.79045    0.57473    0.48238    1.000
    Si4703   Si       0.77707    0.59723    0.38527    1.000
    N4704    N        0.79559    0.61646    0.47551    1.000
    N4705    N        0.76068    0.56089    0.45082    1.000
    N4706    N        0.75271    0.73116    0.41519    1.000
    Si4707   Si       0.80109    0.65904    0.48108    1.000
    Si4708   Si       0.76965    0.71733    0.45299    1.000
    Si4709   Si       0.75253    0.66066    0.41681    1.000
    N4710    N        0.76919    0.67505    0.37588    1.000
    N4711    N        0.80709    0.73171    0.46660    1.000
    N4712    N        0.78323    0.67658    0.44363    1.000
    Si4713   Si       0.77318    0.71952    0.37610    1.000
    Si4714   Si       0.75229    0.56859    0.27855    1.000
    N4715    N        0.75459    0.73777    0.34280    1.000
    N4716    N        0.78705    0.57437    0.52695    1.000
    N4717    N        0.77932    0.51011    0.49503    1.000
    N4718    N        0.77750    0.67776    0.51266    1.000
    N4719    N        0.77611    0.68099    0.58513    1.000
    Si4720   Si       0.78245    0.65471    0.54834    1.000
    Si4721   Si       0.79927    0.66627    0.61995    1.000
    N4722    N        0.76148    0.74151    0.61391    1.000
    N4723    N        0.79094    0.55622    0.62725    1.000
    N4724    N        0.79109    0.59437    0.73387    1.000
    Si4725   Si       0.80461    0.59658    0.62828    1.000
    N4726    N        0.77993    0.62955    0.63317    1.000
    Si4727   Si       0.80184    0.69489    0.69394    1.000
    N4728    N        0.79779    0.69715    0.64993    1.000
    N4729    N        0.80642    0.65730    0.71807    1.000
    N4730    N        0.76578    0.70887    0.71533    1.000
    Si4731   Si       0.77092    0.63087    0.72104    1.000
    Si4732   Si       0.79980    0.73687    0.62946    1.000
    N4733    N        0.75276    0.73736    0.54695    1.000
    Si4734   Si       0.78922    0.52947    0.79916    1.000
    Si4735   Si       0.80293    0.59951    0.80424    1.000
    N4736    N        0.77055    0.53373    0.75782    1.000
    Si4737   Si       0.75970    0.57506    0.75444    1.000
    N4738    N        0.76058    0.58924    0.79592    1.000
    N4739    N        0.80748    0.62887    0.83570    1.000
    N4740    N        0.76616    0.50947    0.83024    1.000
    N4741    N        0.76155    0.72302    0.78228    1.000
    Si4742   Si       0.79092    0.73530    0.81345    1.000
    Si4743   Si       0.79020    0.66598    0.81924    1.000
    N4744    N        0.80195    0.70085    0.84079    1.000
    Si4745   Si       0.77356    0.69133    0.75441    1.000
    N4746    N        0.80697    0.67451    0.78078    1.000
    N4747    N        0.77811    0.64490    0.95622    1.000
    N4748    N        0.80290    0.58093    0.94779    1.000
    Si4749   Si       0.78764    0.60810    0.97733    1.000
    N4750    N        0.78459    0.54978    0.88761    1.000
    Si4751   Si       0.77884    0.54844    0.93219    1.000
    N4752    N        0.79873    0.51220    0.94677    1.000
    Si4753   Si       0.75641    0.52151    0.87186    1.000
    N4754    N        0.76688    0.67338    0.88852    1.000
    N4755    N        0.76752    0.71370    0.97152    1.000
    N4756    N        0.80377    0.72976    0.90401    1.000
    Si4757   Si       0.80091    0.73155    0.94735    1.000
    Si4758   Si       0.80479    0.69417    0.88286    1.000
    N4759    N        0.78474    0.82822    0.01725    1.000
    N4760    N        0.76554    0.79955    0.07791    1.000
    Si4761   Si       0.80290    0.78429    0.09029    1.000
    Si4762   Si       0.76263    0.92116    0.24155    1.000
    N4763    N        0.76012    0.94145    0.06745    1.000
    Si4764   Si       0.79702    0.95711    0.05312    1.000
    N4765    N        0.79909    0.98933    0.02606    1.000
    N4766    N        0.80179    0.89781    0.10078    1.000
    Si4767   Si       0.75946    0.90775    0.09881    1.000
    Si4768   Si       0.78056    0.76911    0.16205    1.000
    N4769    N        0.77190    0.84583    0.12930    1.000
    N4770    N        0.80173    0.83856    0.18802    1.000
    Si4771   Si       0.76236    0.83699    0.17084    1.000
    Si4772   Si       0.80609    0.87136    0.13437    1.000
    N4773    N        0.81012    0.76710    0.19334    1.000
    N4774    N        0.80808    0.78659    0.13267    1.000
    N4775    N        0.79286    0.88935    0.23857    1.000
    N4776    N        0.78995    0.96064    0.17815    1.000
    Si4777   Si       0.78563    0.98792    0.21044    1.000
    N4778    N        0.79614    0.85139    0.30526    1.000
    Si4779   Si       0.79911    0.80959    0.32445    1.000
    Si4780   Si       0.76693    0.87002    0.33385    1.000
    Si4781   Si       0.79105    0.85101    0.26160    1.000
    N4782    N        0.75991    0.79363    0.30519    1.000
    N4783    N        0.78952    0.80656    0.36672    1.000
    N4784    N        0.78017    0.97943    0.31507    1.000
    Si4785   Si       0.79209    0.93870    0.32535    1.000
    Si4786   Si       0.76371    0.98801    0.27660    1.000
    N4787    N        0.76018    0.91026    0.32072    1.000
    N4788    N        0.78395    0.96099    0.24926    1.000
    N4789    N        0.78565    0.87097    0.37264    1.000
    Si4790   Si       0.78552    0.83719    0.39827    1.000
    N4791    N        0.75025    0.85537    0.49135    1.000
    N4792    N        0.77356    0.78883    0.49404    1.000
    N4793    N        0.79289    0.96990    0.44624    1.000
    Si4794   Si       0.80813    0.00247    0.47105    1.000
    Si4795   Si       0.79866    0.90477    0.39744    1.000
    Si4796   Si       0.77414    0.99717    0.41792    1.000
    N4797    N        0.77608    0.90026    0.43265    1.000
    Si4798   Si       0.79375    0.92773    0.46012    1.000
    N4799    N        0.76728    0.91855    0.49620    1.000
    N4800    N        0.78538    0.79932    0.57034    1.000
    Si4801   Si       0.76714    0.77753    0.53740    1.000
    Si4802   Si       0.77234    0.82587    0.60555    1.000
    N4803    N        0.77786    0.91834    0.73948    1.000
    N4804    N        0.78069    0.94015    0.66323    1.000
    Si4805   Si       0.76665    0.88319    0.51962    1.000
    N4806    N        0.80583    0.88702    0.53767    1.000
    N4807    N        0.78917    0.90552    0.60142    1.000
    N4808    N        0.79161    0.95423    0.54973    1.000
    Si4809   Si       0.80543    0.99469    0.54768    1.000
    N4810    N        0.79725    0.98292    0.71802    1.000
    Si4811   Si       0.80885    0.82062    0.72291    1.000
    N4812    N        0.77139    0.86493    0.66469    1.000
    Si4813   Si       0.77000    0.78344    0.67333    1.000
    N4814    N        0.77166    0.81264    0.70384    1.000
    N4815    N        0.80668    0.76262    0.66484    1.000
    Si4816   Si       0.81329    0.85201    0.66128    1.000
    Si4817   Si       0.80893    0.96937    0.67869    1.000
    N4818    N        0.80220    0.00234    0.65232    1.000
    Si4819   Si       0.78515    0.90199    0.64451    1.000
    Si4820   Si       0.77457    0.84329    0.78000    1.000
    N4821    N        0.78029    0.80558    0.80127    1.000
    N4822    N        0.77759    0.87741    0.80669    1.000
    N4823    N        0.80417    0.85476    0.74968    1.000
    N4824    N        0.77147    0.75929    0.84573    1.000
    Si4825   Si       0.77691    0.96665    0.81828    1.000
    N4826    N        0.79602    0.95950    0.85639    1.000
    N4827    N        0.80711    0.96462    0.78706    1.000
    Si4828   Si       0.78223    0.96084    0.75064    1.000
    Si4829   Si       0.79572    0.76927    0.88240    1.000
    Si4830   Si       0.77736    0.81098    0.94213    1.000
    N4831    N        0.78038    0.77074    0.95390    1.000
    N4832    N        0.77972    0.80725    0.89910    1.000
    Si4833   Si       0.80191    0.85543    0.99073    1.000
    N4834    N        0.79813    0.89653    0.98052    1.000
    Si4835   Si       0.76846    0.91877    0.95372    1.000
    N4836    N        0.78996    0.92946    0.91938    1.000
    Si4837   Si       0.79125    0.92125    0.87665    1.000
    N4838    N        0.78247    0.00141    0.95719    1.000
    N4839    N        0.75569    0.89585    0.87141    1.000
    N4840    N        0.84183    0.02655    0.06215    1.000
    N4841    N        0.86575    0.07239    0.10338    1.000
    Si4842   Si       0.87168    0.13037    0.06009    1.000
    N4843    N        0.82920    0.13315    0.06999    1.000
    Si4844   Si       0.84534    0.19293    0.03589    1.000
    N4845    N        0.86253    0.22119    0.06636    1.000
    N4846    N        0.84774    0.21102    0.99628    1.000
    Si4847   Si       0.82686    0.06150    0.12011    1.000
    N4848    N        0.82471    0.01810    0.12777    1.000
    Si4849   Si       0.83507    0.11840    0.17172    1.000
    N4850    N        0.82989    0.12063    0.21514    1.000
    Si4851   Si       0.84633    0.01911    0.23885    1.000
    N4852    N        0.81756    0.08313    0.15590    1.000
    N4853    N        0.82180    0.01034    0.20567    1.000
    Si4854   Si       0.84195    0.00485    0.16643    1.000
    Si4855   Si       0.85573    0.14963    0.23545    1.000
    N4856    N        0.86302    0.20201    0.14359    1.000
    Si4857   Si       0.82336    0.19568    0.15791    1.000
    N4858    N        0.83347    0.21700    0.19574    1.000
    N4859    N        0.87459    0.09213    0.03744    1.000
    N4860    N        0.84042    0.10716    0.32298    1.000
    N4861    N        0.84432    0.05356    0.26497    1.000
    Si4862   Si       0.85890    0.13478    0.29601    1.000
    N4863    N        0.83411    0.16123    0.27056    1.000
    Si4864   Si       0.83428    0.21644    0.33911    1.000
    N4865    N        0.83341    0.18180    0.36503    1.000
    N4866    N        0.80874    0.22169    0.30260    1.000
    N4867    N        0.82448    0.25292    0.35965    1.000
    N4868    N        0.83385    0.25805    0.24962    1.000
    Si4869   Si       0.84070    0.10774    0.41478    1.000
    N4870    N        0.85800    0.02554    0.40465    1.000
    N4871    N        0.85742    0.08193    0.44737    1.000
    Si4872   Si       0.84185    0.09212    0.48796    1.000
    Si4873   Si       0.81735    0.04149    0.40162    1.000
    N4874    N        0.81701    0.08188    0.38827    1.000
    N4875    N        0.86973    0.12392    0.38856    1.000
    N4876    N        0.81549    0.19584    0.48818    1.000
    Si4877   Si       0.85452    0.17544    0.49176    1.000
    N4878    N        0.81220    0.13899    0.42654    1.000
    N4879    N        0.82976    0.21022    0.42499    1.000
    Si4880   Si       0.81402    0.22899    0.46117    1.000
    Si4881   Si       0.80869    0.08951    0.34523    1.000
    N4882    N        0.83586    0.10058    0.56595    1.000
    N4883    N        0.86357    0.06511    0.51642    1.000
    Si4884   Si       0.81622    0.09233    0.60306    1.000
    Si4885   Si       0.86745    0.02276    0.51898    1.000
    N4886    N        0.84765    0.13409    0.50472    1.000
    Si4887   Si       0.83085    0.13852    0.54570    1.000
    N4888    N        0.84231    0.16834    0.57548    1.000
    Si4889   Si       0.84816    0.20759    0.55987    1.000
    N4890    N        0.82466    0.23913    0.54146    1.000
    Si4891   Si       0.85923    0.24574    0.51398    1.000
    Si4892   Si       0.84114    0.16463    0.61957    1.000
    N4893    N        0.86860    0.23288    0.59074    1.000
    Si4894   Si       0.81986    0.01552    0.61584    1.000
    N4895    N        0.83095    0.05676    0.62258    1.000
    N4896    N        0.81949    0.12689    0.63039    1.000
    N4897    N        0.82618    0.04644    0.72322    1.000
    Si4898   Si       0.86672    0.03280    0.71655    1.000
    N4899    N        0.82169    0.16778    0.71492    1.000
    N4900    N        0.82784    0.22730    0.68102    1.000
    Si4901   Si       0.86159    0.16900    0.73076    1.000
    N4902    N        0.87278    0.20378    0.52157    1.000
    N4903    N        0.83794    0.09068    0.83795    1.000
    Si4904   Si       0.84437    0.05578    0.86421    1.000
    Si4905   Si       0.85438    0.17797    0.84647    1.000
    Si4906   Si       0.85652    0.23945    0.75775    1.000
    N4907    N        0.86317    0.19776    0.76485    1.000
    N4908    N        0.81562    0.20258    0.84717    1.000
    N4909    N        0.86360    0.15053    0.81303    1.000
    Si4910   Si       0.82437    0.09385    0.92966    1.000
    N4911    N        0.84954    0.07144    0.90356    1.000
    Si4912   Si       0.82313    0.06081    0.98374    1.000
    N4913    N        0.84139    0.02103    0.98664    1.000
    N4914    N        0.85691    0.08249    0.96349    1.000
    Si4915   Si       0.86141    0.20481    0.95710    1.000
    Si4916   Si       0.84415    0.16128    0.91976    1.000
    N4917    N        0.86580    0.16058    0.88201    1.000
    N4918    N        0.83119    0.20278    0.92597    1.000
    N4919    N        0.86781    0.12984    0.74373    1.000
    N4920    N        0.81489    0.02467    0.86236    1.000
    N4921    N        0.80936    0.13737    0.92445    1.000
    N4922    N        0.81911    0.25725    0.74585    1.000
    N4923    N        0.83789    0.32860    0.03146    1.000
    N4924    N        0.82667    0.27188    0.09079    1.000
    Si4925   Si       0.83826    0.37208    0.02967    1.000
    Si4926   Si       0.86251    0.28048    0.11686    1.000
    Si4927   Si       0.84619    0.26006    0.05334    1.000
    N4928    N        0.86528    0.37554    0.06501    1.000
    Si4929   Si       0.86862    0.46850    0.08186    1.000
    Si4930   Si       0.86127    0.40524    0.09868    1.000
    N4931    N        0.82809    0.47946    0.07606    1.000
    N4932    N        0.81794    0.40240    0.10790    1.000
    N4933    N        0.84190    0.27752    0.15638    1.000
    Si4934   Si       0.84861    0.31215    0.18172    1.000
    Si4935   Si       0.81567    0.35988    0.21955    1.000
    N4936    N        0.81969    0.44191    0.17444    1.000
    N4937    N        0.84635    0.38618    0.20383    1.000
    Si4938   Si       0.84966    0.43244    0.20499    1.000
    N4939    N        0.86018    0.44556    0.12093    1.000
    N4940    N        0.86635    0.47169    0.21931    1.000
    N4941    N        0.82091    0.43432    0.24068    1.000
    Si4942   Si       0.81565    0.43906    0.13013    1.000
    N4943    N        0.87210    0.30641    0.22086    1.000
    N4944    N        0.84913    0.29624    0.30593    1.000
    Si4945   Si       0.85657    0.31864    0.34307    1.000
    N4946    N        0.81874    0.32201    0.36232    1.000
    N4947    N        0.82317    0.33674    0.25591    1.000
    Si4948   Si       0.86125    0.31942    0.26599    1.000
    Si4949   Si       0.82233    0.26298    0.29172    1.000
    N4950    N        0.86789    0.36329    0.34338    1.000
    N4951    N        0.84727    0.43396    0.33823    1.000
    Si4952   Si       0.85685    0.40063    0.36483    1.000
    Si4953   Si       0.81810    0.46692    0.34618    1.000
    Si4954   Si       0.84292    0.46678    0.25852    1.000
    N4955    N        0.82235    0.50059    0.27324    1.000
    N4956    N        0.85933    0.30856    0.42425    1.000
    Si4957   Si       0.82205    0.32067    0.40892    1.000
    Si4958   Si       0.86633    0.38315    0.48956    1.000
    N4959    N        0.84660    0.25529    0.47382    1.000
    N4960    N        0.83669    0.48591    0.45638    1.000
    N4961    N        0.86268    0.39535    0.44838    1.000
    N4962    N        0.81993    0.38774    0.38314    1.000
    Si4963   Si       0.82587    0.39280    0.42654    1.000
    N4964    N        0.83507    0.50851    0.34546    1.000
    N4965    N        0.83210    0.29634    0.57446    1.000
    N4966    N        0.85538    0.34251    0.50571    1.000
    N4967    N        0.81660    0.36406    0.56137    1.000
    Si4968   Si       0.86861    0.27370    0.57745    1.000
    Si4969   Si       0.81615    0.33258    0.59248    1.000
    Si4970   Si       0.84063    0.49541    0.68640    1.000
    Si4971   Si       0.83699    0.40281    0.55737    1.000
    N4972    N        0.83725    0.40915    0.51385    1.000
    N4973    N        0.84275    0.44602    0.58182    1.000
    Si4974   Si       0.82670    0.48530    0.56408    1.000
    N4975    N        0.84432    0.49982    0.52413    1.000
    N4976    N        0.83853    0.34483    0.62532    1.000
    N4977    N        0.86630    0.30497    0.73929    1.000
    N4978    N        0.85504    0.36324    0.68279    1.000
    Si4979   Si       0.85637    0.32368    0.65903    1.000
    N4980    N        0.83245    0.29366    0.67860    1.000
    Si4981   Si       0.82794    0.29362    0.72288    1.000
    Si4982   Si       0.82453    0.37496    0.65409    1.000
    N4983    N        0.86850    0.49235    0.72232    1.000
    N4984    N        0.85687    0.46394    0.65951    1.000
    N4985    N        0.81909    0.41212    0.63294    1.000
    Si4986   Si       0.83239    0.45066    0.62487    1.000
    N4987    N        0.84067    0.32782    0.80000    1.000
    Si4988   Si       0.82451    0.31534    0.83813    1.000
    N4989    N        0.83390    0.27280    0.84493    1.000
    N4990    N        0.85107    0.37512    0.75011    1.000
    Si4991   Si       0.82164    0.35034    0.76944    1.000
    Si4992   Si       0.87336    0.36517    0.87180    1.000
    N4993    N        0.84064    0.45168    0.84084    1.000
    N4994    N        0.85681    0.44263    0.78157    1.000
    Si4995   Si       0.82246    0.46104    0.80243    1.000
    N4996    N        0.82215    0.50231    0.79754    1.000
    Si4997   Si       0.84576    0.41753    0.74861    1.000
    N4998    N        0.84308    0.33475    0.87425    1.000
    N4999    N        0.85264    0.34470    0.94051    1.000
    Si5000   Si       0.83414    0.31748    0.91231    1.000
    N5001    N        0.85352    0.28112    0.91663    1.000
    Si5002   Si       0.82818    0.37608    0.95865    1.000
    N5003    N        0.85192    0.38761    0.99178    1.000
    N5004    N        0.86775    0.49190    0.97534    1.000
    Si5005   Si       0.82081    0.41833    0.88771    1.000
    N5006    N        0.86164    0.40788    0.88231    1.000
    N5007    N        0.81302    0.40153    0.92735    1.000
    Si5008   Si       0.84704    0.48066    0.87409    1.000
    N5009    N        0.81468    0.46066    0.89739    1.000
    N5010    N        0.83289    0.53460    0.00770    1.000
    N5011    N        0.82283    0.55321    0.07190    1.000
    N5012    N        0.85569    0.61690    0.06147    1.000
    Si5013   Si       0.85993    0.57712    0.07794    1.000
    Si5014   Si       0.81446    0.51883    0.09565    1.000
    Si5015   Si       0.82585    0.63562    0.03480    1.000
    N5016    N        0.85017    0.68445    0.08714    1.000
    N5017    N        0.84568    0.66028    0.00637    1.000
    Si5018   Si       0.81984    0.65526    0.09703    1.000
    N5019    N        0.82354    0.62070    0.12224    1.000
    N5020    N        0.86286    0.60672    0.19490    1.000
    Si5021   Si       0.83040    0.61188    0.16355    1.000
    N5022    N        0.83083    0.52227    0.13721    1.000
    N5023    N        0.84441    0.53439    0.20893    1.000
    Si5024   Si       0.86496    0.57364    0.21996    1.000
    Si5025   Si       0.81440    0.53670    0.17510    1.000
    Si5026   Si       0.82156    0.53651    0.24894    1.000
    N5027    N        0.82711    0.70398    0.22083    1.000
    Si5028   Si       0.84249    0.74045    0.20386    1.000
    Si5029   Si       0.83990    0.66164    0.21235    1.000
    Si5030   Si       0.82211    0.54731    0.35881    1.000
    N5031    N        0.82321    0.57425    0.32304    1.000
    N5032    N        0.85192    0.56571    0.26151    1.000
    Si5033   Si       0.86154    0.57568    0.30104    1.000
    N5034    N        0.81093    0.73959    0.38624    1.000
    Si5035   Si       0.81217    0.70402    0.26266    1.000
    N5036    N        0.84695    0.69279    0.28685    1.000
    Si5037   Si       0.84864    0.64875    0.29024    1.000
    N5038    N        0.81667    0.64368    0.32238    1.000
    N5039    N        0.82874    0.63882    0.25059    1.000
    N5040    N        0.86809    0.73182    0.34567    1.000
    N5041    N        0.84552    0.67854    0.37415    1.000
    N5042    N        0.81329    0.61932    0.38944    1.000
    Si5043   Si       0.86626    0.56853    0.46167    1.000
    N5044    N        0.86078    0.60743    0.44384    1.000
    N5045    N        0.84855    0.55996    0.38980    1.000
    N5046    N        0.82736    0.55281    0.47479    1.000
    Si5047   Si       0.84935    0.60250    0.40250    1.000
    Si5048   Si       0.82339    0.51206    0.48828    1.000
    Si5049   Si       0.84964    0.71893    0.38432    1.000
    N5050    N        0.84380    0.67072    0.48113    1.000
    Si5051   Si       0.84645    0.71162    0.46310    1.000
    N5052    N        0.86738    0.71769    0.42468    1.000
    N5053    N        0.85583    0.57728    0.54140    1.000
    N5054    N        0.83806    0.51830    0.58958    1.000
    N5055    N        0.82181    0.60053    0.58810    1.000
    Si5056   Si       0.81938    0.59761    0.54514    1.000
    Si5057   Si       0.86178    0.54617    0.56976    1.000
    Si5058   Si       0.86186    0.61022    0.60303    1.000
    Si5059   Si       0.85697    0.66297    0.52586    1.000
    Si5060   Si       0.85560    0.70609    0.58665    1.000
    N5061    N        0.82890    0.73902    0.59695    1.000
    N5062    N        0.84276    0.67036    0.60944    1.000
    N5063    N        0.82193    0.64088    0.53768    1.000
    N5064    N        0.86908    0.69767    0.54669    1.000
    Si5065   Si       0.81836    0.52424    0.62758    1.000
    Si5066   Si       0.83210    0.58878    0.73780    1.000
    N5067    N        0.84427    0.60360    0.64475    1.000
    N5068    N        0.86278    0.61531    0.71862    1.000
    N5069    N        0.84507    0.53096    0.66156    1.000
    N5070    N        0.83617    0.71818    0.70915    1.000
    Si5071   Si       0.87201    0.70761    0.73472    1.000
    N5072    N        0.83547    0.61098    0.77820    1.000
    Si5073   Si       0.85467    0.52870    0.81383    1.000
    Si5074   Si       0.82042    0.55851    0.86472    1.000
    N5075    N        0.84628    0.55122    0.74821    1.000
    N5076    N        0.84630    0.52147    0.85761    1.000
    Si5077   Si       0.83910    0.63069    0.86473    1.000
    N5078    N        0.81291    0.56064    0.82005    1.000
    Si5079   Si       0.83118    0.65027    0.75475    1.000
    N5080    N        0.86999    0.66929    0.75248    1.000
    Si5081   Si       0.83538    0.51999    0.96690    1.000
    N5082    N        0.85829    0.54713    0.94107    1.000
    Si5083   Si       0.84157    0.58697    0.93199    1.000
    N5084    N        0.83882    0.59133    0.88754    1.000
    N5085    N        0.86867    0.61461    0.95147    1.000
    N5086    N        0.84010    0.66628    0.88811    1.000
    Si5087   Si       0.86214    0.69933    0.99402    1.000
    N5088    N        0.83909    0.72108    0.96578    1.000
    Si5089   Si       0.86593    0.74501    0.94260    1.000
    N5090    N        0.83598    0.79998    0.06702    1.000
    N5091    N        0.84157    0.85362    0.01432    1.000
    Si5092   Si       0.82563    0.81494    0.02854    1.000
    N5093    N        0.84768    0.79248    0.99881    1.000
    Si5094   Si       0.83275    0.92047    0.08270    1.000
    Si5095   Si       0.84581    0.99734    0.09483    1.000
    N5096    N        0.82392    0.96289    0.08678    1.000
    N5097    N        0.82081    0.92223    0.03907    1.000
    N5098    N        0.85634    0.75965    0.24174    1.000
    N5099    N        0.84066    0.84592    0.12658    1.000
    Si5100   Si       0.84549    0.80592    0.14147    1.000
    N5101    N        0.86167    0.80985    0.18086    1.000
    Si5102   Si       0.82575    0.80522    0.20742    1.000
    N5103    N        0.86157    0.87016    0.21034    1.000
    Si5104   Si       0.81789    0.87560    0.20595    1.000
    N5105    N        0.84372    0.93181    0.22082    1.000
    N5106    N        0.85676    0.96491    0.16081    1.000
    N5107    N        0.81874    0.89874    0.16802    1.000
    Si5108   Si       0.82917    0.93928    0.17959    1.000
    N5109    N        0.83342    0.78805    0.31015    1.000
    Si5110   Si       0.82569    0.77745    0.26791    1.000
    Si5111   Si       0.86594    0.77608    0.33672    1.000
    N5112    N        0.81696    0.81568    0.24741    1.000
    N5113    N        0.82401    0.92738    0.29459    1.000
    N5114    N        0.84382    0.98561    0.26709    1.000
    Si5115   Si       0.82562    0.94925    0.25638    1.000
    N5116    N        0.84394    0.00101    0.34079    1.000
    N5117    N        0.86594    0.89529    0.33790    1.000
    Si5118   Si       0.86669    0.91842    0.30102    1.000
    Si5119   Si       0.86583    0.99065    0.30317    1.000
    N5120    N        0.81008    0.93284    0.36441    1.000
    N5121    N        0.85624    0.79070    0.37776    1.000
    N5122    N        0.83188    0.85435    0.47961    1.000
    Si5123   Si       0.84189    0.82388    0.45401    1.000
    N5124    N        0.84719    0.79040    0.48098    1.000
    Si5125   Si       0.81622    0.78258    0.39147    1.000
    N5126    N        0.81224    0.81247    0.42421    1.000
    Si5127   Si       0.81231    0.76784    0.48968    1.000
    Si5128   Si       0.86487    0.91922    0.44733    1.000
    Si5129   Si       0.85074    0.92042    0.36920    1.000
    N5130    N        0.84219    0.90615    0.41247    1.000
    N5131    N        0.83242    0.92239    0.47732    1.000
    N5132    N        0.85050    0.00633    0.47856    1.000
    Si5133   Si       0.87059    0.99686    0.37598    1.000
    Si5134   Si       0.85400    0.82988    0.60595    1.000
    N5135    N        0.85792    0.79779    0.57888    1.000
    Si5136   Si       0.82264    0.77632    0.57199    1.000
    N5137    N        0.86755    0.86888    0.59095    1.000
    N5138    N        0.81713    0.75989    0.53192    1.000
    Si5139   Si       0.83649    0.88741    0.50681    1.000
    N5140    N        0.85165    0.93599    0.57297    1.000
    N5141    N        0.84672    0.99924    0.54877    1.000
    Si5142   Si       0.86790    0.97776    0.57802    1.000
    Si5143   Si       0.81312    0.91994    0.56733    1.000
    Si5144   Si       0.83589    0.75993    0.69615    1.000
    N5145    N        0.83495    0.83173    0.69083    1.000
    N5146    N        0.82683    0.78236    0.73425    1.000
    N5147    N        0.86068    0.99924    0.61665    1.000
    Si5148   Si       0.85641    0.91496    0.68074    1.000
    N5149    N        0.85079    0.95762    0.67461    1.000
    N5150    N        0.84937    0.90456    0.72307    1.000
    N5151    N        0.82776    0.89302    0.65775    1.000
    N5152    N        0.81380    0.83204    0.62108    1.000
    N5153    N        0.83851    0.84059    0.81670    1.000
    Si5154   Si       0.84778    0.76805    0.76814    1.000
    N5155    N        0.82793    0.78968    0.86272    1.000
    N5156    N        0.82522    0.75996    0.80383    1.000
    Si5157   Si       0.82007    0.88054    0.81757    1.000
    Si5158   Si       0.81839    0.79999    0.82207    1.000
    N5159    N        0.82314    0.89764    0.85652    1.000
    N5160    N        0.83664    0.90714    0.78701    1.000
    Si5161   Si       0.84703    0.95052    0.79654    1.000
    N5162    N        0.85558    0.97646    0.82955    1.000
    Si5163   Si       0.82925    0.98548    0.86311    1.000
    Si5164   Si       0.81570    0.89672    0.74882    1.000
    Si5165   Si       0.86128    0.80096    0.88644    1.000
    N5166    N        0.85560    0.78539    0.92678    1.000
    Si5167   Si       0.85155    0.81225    0.95998    1.000
    N5168    N        0.86778    0.84397    0.89388    1.000
    N5169    N        0.81304    0.83327    0.95557    1.000
    Si5170   Si       0.85813    0.88578    0.87802    1.000
    N5171    N        0.85401    0.90178    0.91763    1.000
    N5172    N        0.84705    0.97134    0.90029    1.000
    Si5173   Si       0.83190    0.93930    0.92707    1.000
    N5174    N        0.83181    0.95418    0.96801    1.000
    Si5175   Si       0.81223    0.99008    0.98415    1.000
    Si5176   Si       0.83083    0.92003    0.99591    1.000
    N5177    N        0.91061    0.03470    0.06057    1.000
    Si5178   Si       0.90340    0.14503    0.17896    1.000
    Si5179   Si       0.87416    0.05687    0.06364    1.000
    Si5180   Si       0.88759    0.08677    0.99694    1.000
    N5181    N        0.89645    0.13155    0.09363    1.000
    N5182    N        0.88087    0.16979    0.20487    1.000
    N5183    N        0.91404    0.22844    0.01600    1.000
    N5184    N        0.87965    0.16550    0.03846    1.000
    Si5185   Si       0.91179    0.19442    0.04776    1.000
    N5186    N        0.91613    0.19856    0.09158    1.000
    Si5187   Si       0.87771    0.21476    0.10727    1.000
    N5188    N        0.89651    0.25393    0.11637    1.000
    Si5189   Si       0.89252    0.09877    0.12348    1.000
    N5190    N        0.87470    0.11936    0.15739    1.000
    N5191    N        0.87570    0.03148    0.16828    1.000
    N5192    N        0.88827    0.02786    0.23048    1.000
    Si5193   Si       0.90842    0.02484    0.19276    1.000
    Si5194   Si       0.87433    0.20877    0.18526    1.000
    N5195    N        0.89760    0.23760    0.20854    1.000
    Si5196   Si       0.93154    0.21881    0.23041    1.000
    Si5197   Si       0.88860    0.05146    0.26703    1.000
    N5198    N        0.89649    0.02192    0.30010    1.000
    N5199    N        0.92367    0.07643    0.26322    1.000
    Si5200   Si       0.92662    0.11592    0.24380    1.000
    N5201    N        0.88700    0.12982    0.25994    1.000
    Si5202   Si       0.90116    0.19732    0.30785    1.000
    N5203    N        0.91588    0.20099    0.26885    1.000
    N5204    N        0.88076    0.16223    0.32158    1.000
    N5205    N        0.87244    0.23126    0.32074    1.000
    Si5206   Si       0.87358    0.15833    0.36566    1.000
    N5207    N        0.92627    0.13436    0.36155    1.000
    Si5208   Si       0.88562    0.05225    0.42757    1.000
    N5209    N        0.91210    0.02875    0.45191    1.000
    N5210    N        0.91205    0.06688    0.39832    1.000
    Si5211   Si       0.91250    0.10913    0.39373    1.000
    N5212    N        0.92344    0.12370    0.43257    1.000
    N5213    N        0.87857    0.17904    0.45698    1.000
    Si5214   Si       0.91905    0.16234    0.45390    1.000
    N5215    N        0.89533    0.24122    0.43360    1.000
    Si5216   Si       0.87359    0.20658    0.42347    1.000
    N5217    N        0.89645    0.18823    0.39052    1.000
    N5218    N        0.89071    0.05441    0.58588    1.000
    N5219    N        0.90036    0.11567    0.54866    1.000
    Si5220   Si       0.87449    0.08162    0.55544    1.000
    Si5221   Si       0.89491    0.21541    0.61899    1.000
    N5222    N        0.88148    0.17419    0.63072    1.000
    Si5223   Si       0.87522    0.04522    0.62466    1.000
    N5224    N        0.89682    0.07515    0.64741    1.000
    N5225    N        0.89690    0.06882    0.71898    1.000
    Si5226   Si       0.91639    0.05172    0.68181    1.000
    N5227    N        0.88019    0.02364    0.67453    1.000
    Si5228   Si       0.90724    0.17030    0.66714    1.000
    N5229    N        0.92784    0.13224    0.67539    1.000
    N5230    N        0.88446    0.24519    0.72452    1.000
    N5231    N        0.89250    0.24090    0.65304    1.000
    N5232    N        0.88324    0.18678    0.69940    1.000
    Si5233   Si       0.92691    0.24697    0.73508    1.000
    Si5234   Si       0.87162    0.22718    0.68808    1.000
    N5235    N        0.90226    0.10714    0.85461    1.000
    N5236    N        0.89890    0.08413    0.78991    1.000
    N5237    N        0.88283    0.04006    0.85280    1.000
    Si5238   Si       0.91409    0.06690    0.86518    1.000
    Si5239   Si       0.87476    0.10886    0.82149    1.000
    Si5240   Si       0.92546    0.04897    0.79668    1.000
    Si5241   Si       0.90080    0.10253    0.74948    1.000
    N5242    N        0.91200    0.00811    0.80057    1.000
    N5243    N        0.89477    0.24834    0.87502    1.000
    Si5244   Si       0.87110    0.25186    0.83591    1.000
    N5245    N        0.88224    0.20786    0.83068    1.000
    Si5246   Si       0.88969    0.18227    0.79360    1.000
    Si5247   Si       0.91745    0.21342    0.85949    1.000
    Si5248   Si       0.88329    0.06192    0.93014    1.000
    N5249    N        0.88541    0.01826    0.93464    1.000
    Si5250   Si       0.88274    0.01581    0.97856    1.000
    N5251    N        0.91882    0.11486    0.98680    1.000
    N5252    N        0.91870    0.07081    0.90666    1.000
    N5253    N        0.90492    0.04653    0.99426    1.000
    N5254    N        0.92433    0.13217    0.91927    1.000
    N5255    N        0.89566    0.23107    0.94645    1.000
    Si5256   Si       0.91284    0.14883    0.95708    1.000
    Si5257   Si       0.90520    0.14092    0.88142    1.000
    N5258    N        0.87215    0.16230    0.95093    1.000
    N5259    N        0.91077    0.34769    0.03935    1.000
    N5260    N        0.88191    0.28364    0.04704    1.000
    Si5261   Si       0.92018    0.26738    0.03395    1.000
    Si5262   Si       0.87347    0.32740    0.05753    1.000
    N5263    N        0.87492    0.31906    0.10158    1.000
    Si5264   Si       0.90584    0.39008    0.05225    1.000
    N5265    N        0.90942    0.41351    0.01634    1.000
    N5266    N        0.89383    0.43052    0.07490    1.000
    Si5267   Si       0.91476    0.45398    0.02954    1.000
    N5268    N        0.88690    0.48557    0.03811    1.000
    N5269    N        0.89200    0.50119    0.10113    1.000
    Si5270   Si       0.89682    0.34718    0.12591    1.000
    N5271    N        0.88069    0.33631    0.16701    1.000
    N5272    N        0.91426    0.36742    0.21074    1.000
    Si5273   Si       0.90752    0.32372    0.20143    1.000
    Si5274   Si       0.87602    0.26483    0.23359    1.000
    Si5275   Si       0.88215    0.37925    0.17775    1.000
    Si5276   Si       0.92978    0.40831    0.20558    1.000
    N5277    N        0.89449    0.42158    0.18340    1.000
    N5278    N        0.92231    0.49703    0.22873    1.000
    N5279    N        0.93071    0.29513    0.17719    1.000
    Si5280   Si       0.89518    0.43038    0.14220    1.000
    N5281    N        0.88662    0.38908    0.13235    1.000
    N5282    N        0.92988    0.42866    0.24400    1.000
    Si5283   Si       0.92421    0.50760    0.07403    1.000
    Si5284   Si       0.90469    0.46328    0.24291    1.000
    Si5285   Si       0.90069    0.36550    0.31468    1.000
    N5286    N        0.89376    0.29773    0.34898    1.000
    N5287    N        0.89005    0.34882    0.27523    1.000
    Si5288   Si       0.89156    0.26954    0.31389    1.000
    N5289    N        0.89909    0.27676    0.26999    1.000
    Si5290   Si       0.92734    0.35534    0.25114    1.000
    Si5291   Si       0.88385    0.43989    0.31461    1.000
    N5292    N        0.91080    0.40753    0.31071    1.000
    N5293    N        0.90168    0.47298    0.33871    1.000
    N5294    N        0.87943    0.46046    0.27814    1.000
    Si5295   Si       0.87823    0.50806    0.34714    1.000
    Si5296   Si       0.87684    0.49138    0.43986    1.000
    Si5297   Si       0.87456    0.27803    0.44973    1.000
    N5298    N        0.90366    0.29825    0.47708    1.000
    N5299    N        0.88802    0.41825    0.38938    1.000
    N5300    N        0.90340    0.45623    0.43922    1.000
    N5301    N        0.91072    0.50251    0.49132    1.000
    Si5302   Si       0.89828    0.41382    0.43105    1.000
    Si5303   Si       0.90297    0.45894    0.38229    1.000
    N5304    N        0.88215    0.49714    0.39272    1.000
    N5305    N        0.89747    0.29351    0.60426    1.000
    Si5306   Si       0.88846    0.31375    0.51525    1.000
    N5307    N        0.91502    0.33387    0.54718    1.000
    N5308    N        0.88041    0.27655    0.53472    1.000
    Si5309   Si       0.91131    0.37725    0.54447    1.000
    N5310    N        0.90714    0.38631    0.50273    1.000
    Si5311   Si       0.88577    0.43857    0.57991    1.000
    N5312    N        0.90105    0.45898    0.54633    1.000
    N5313    N        0.87838    0.39586    0.56813    1.000
    Si5314   Si       0.88891    0.49608    0.52891    1.000
    N5315    N        0.90944    0.45297    0.61376    1.000
    Si5316   Si       0.90067    0.31073    0.71323    1.000
    N5317    N        0.89543    0.30946    0.66866    1.000
    N5318    N        0.91287    0.35106    0.72290    1.000
    Si5319   Si       0.91090    0.27909    0.64256    1.000
    Si5320   Si       0.87779    0.37614    0.71519    1.000
    N5321    N        0.91990    0.46931    0.68512    1.000
    Si5322   Si       0.89857    0.45982    0.72184    1.000
    N5323    N        0.87828    0.41993    0.71915    1.000
    Si5324   Si       0.89833    0.47657    0.64862    1.000
    N5325    N        0.91488    0.32237    0.78972    1.000
    Si5326   Si       0.92044    0.35644    0.81648    1.000
    N5327    N        0.88545    0.37784    0.83213    1.000
    Si5328   Si       0.87458    0.30701    0.78153    1.000
    N5329    N        0.86835    0.26302    0.79191    1.000
    N5330    N        0.92252    0.46010    0.75924    1.000
    N5331    N        0.90860    0.44378    0.82858    1.000
    Si5332   Si       0.89614    0.46343    0.79147    1.000
    Si5333   Si       0.87288    0.41964    0.83919    1.000
    Si5334   Si       0.92404    0.49280    0.89052    1.000
    N5335    N        0.91257    0.29514    0.93755    1.000
    Si5336   Si       0.89495    0.33507    0.93858    1.000
    N5337    N        0.90289    0.35504    0.90098    1.000
    N5338    N        0.91280    0.35853    0.97174    1.000
    Si5339   Si       0.89282    0.26263    0.91654    1.000
    Si5340   Si       0.89412    0.42896    0.90570    1.000
    N5341    N        0.89405    0.42899    0.94760    1.000
    N5342    N        0.88544    0.46881    0.89068    1.000
    Si5343   Si       0.90318    0.47184    0.96249    1.000
    N5344    N        0.92041    0.50154    0.93395    1.000
    Si5345   Si       0.89305    0.39834    0.97843    1.000
    N5346    N        0.88456    0.55510    0.04943    1.000
    N5347    N        0.90302    0.61762    0.01341    1.000
    Si5348   Si       0.89902    0.62926    0.05604    1.000
    Si5349   Si       0.92063    0.56504    0.02547    1.000
    Si5350   Si       0.87382    0.51975    0.01620    1.000
    N5351    N        0.92423    0.60946    0.08377    1.000
    N5352    N        0.87825    0.56976    0.11626    1.000
    N5353    N        0.88142    0.66879    0.20442    1.000
    N5354    N        0.91132    0.66939    0.05605    1.000
    N5355    N        0.90235    0.72535    0.09803    1.000
    Si5356   Si       0.88274    0.70163    0.06818    1.000
    N5357    N        0.87286    0.72403    0.02998    1.000
    Si5358   Si       0.91309    0.59488    0.12536    1.000
    N5359    N        0.90284    0.55492    0.21231    1.000
    Si5360   Si       0.87312    0.52903    0.13101    1.000
    Si5361   Si       0.88620    0.51441    0.20627    1.000
    Si5362   Si       0.90006    0.63202    0.18954    1.000
    Si5363   Si       0.89957    0.70821    0.19410    1.000
    N5364    N        0.87153    0.73093    0.17160    1.000
    N5365    N        0.91035    0.63327    0.14723    1.000
    N5366    N        0.91822    0.73286    0.22425    1.000
    Si5367   Si       0.89105    0.74805    0.13454    1.000
    N5368    N        0.89538    0.50867    0.16432    1.000
    N5369    N        0.88790    0.54449    0.32434    1.000
    N5370    N        0.87943    0.61668    0.29711    1.000
    Si5371   Si       0.92797    0.55604    0.33774    1.000
    Si5372   Si       0.91833    0.63396    0.31110    1.000
    N5373    N        0.89813    0.67124    0.32673    1.000
    N5374    N        0.90386    0.73470    0.28996    1.000
    Si5375   Si       0.87912    0.70750    0.31152    1.000
    Si5376   Si       0.88548    0.66324    0.36726    1.000
    N5377    N        0.90686    0.65948    0.44963    1.000
    N5378    N        0.91712    0.56278    0.37932    1.000
    Si5379   Si       0.92407    0.60437    0.38631    1.000
    Si5380   Si       0.92221    0.54080    0.47272    1.000
    N5381    N        0.88462    0.62298    0.38396    1.000
    Si5382   Si       0.88582    0.53990    0.39983    1.000
    N5383    N        0.88812    0.53495    0.44167    1.000
    N5384    N        0.89969    0.57522    0.48740    1.000
    Si5385   Si       0.87394    0.64090    0.46979    1.000
    N5386    N        0.91812    0.68442    0.38944    1.000
    Si5387   Si       0.90700    0.69880    0.42854    1.000
    N5388    N        0.87865    0.72869    0.48553    1.000
    N5389    N        0.89907    0.52698    0.55649    1.000
    N5390    N        0.88264    0.56823    0.60335    1.000
    Si5391   Si       0.89517    0.59478    0.52494    1.000
    N5392    N        0.92687    0.58848    0.55562    1.000
    Si5393   Si       0.92188    0.55504    0.58308    1.000
    N5394    N        0.89642    0.63641    0.59715    1.000
    N5395    N        0.88583    0.63488    0.51146    1.000
    Si5396   Si       0.89644    0.72032    0.52316    1.000
    N5397    N        0.89302    0.70953    0.61274    1.000
    N5398    N        0.90075    0.58114    0.67175    1.000
    Si5399   Si       0.88049    0.55303    0.64454    1.000
    N5400    N        0.90629    0.51832    0.64047    1.000
    N5401    N        0.91207    0.54698    0.73615    1.000
    Si5402   Si       0.87196    0.61454    0.67544    1.000
    Si5403   Si       0.92650    0.56486    0.70100    1.000
    Si5404   Si       0.93031    0.73157    0.62553    1.000
    N5405    N        0.90409    0.71117    0.70503    1.000
    Si5406   Si       0.91844    0.67493    0.68548    1.000
    Si5407   Si       0.89565    0.63568    0.73984    1.000
    N5408    N        0.88790    0.65204    0.66440    1.000
    Si5409   Si       0.88681    0.66853    0.62501    1.000
    N5410    N        0.92901    0.64828    0.71742    1.000
    Si5411   Si       0.91012    0.75167    0.69730    1.000
    N5412    N        0.90749    0.60703    0.77210    1.000
    Si5413   Si       0.91937    0.55532    0.82928    1.000
    N5414    N        0.87971    0.56463    0.81672    1.000
    N5415    N        0.92118    0.52881    0.86526    1.000
    Si5416   Si       0.87797    0.52494    0.74863    1.000
    Si5417   Si       0.87508    0.60541    0.80202    1.000
    N5418    N        0.87551    0.62939    0.83727    1.000
    Si5419   Si       0.91237    0.62909    0.85645    1.000
    N5420    N        0.87891    0.73950    0.76255    1.000
    N5421    N        0.90271    0.54352    0.99020    1.000
    Si5422   Si       0.89986    0.53992    0.94777    1.000
    Si5423   Si       0.90534    0.61369    0.92803    1.000
    N5424    N        0.91461    0.57251    0.92156    1.000
    N5425    N        0.90273    0.64359    0.89715    1.000
    N5426    N        0.88374    0.71973    0.91041    1.000
    N5427    N        0.89378    0.67878    0.97083    1.000
    Si5428   Si       0.91420    0.74326    0.89061    1.000
    Si5429   Si       0.87754    0.67676    0.90533    1.000
    Si5430   Si       0.87754    0.63902    0.98599    1.000
    N5431    N        0.93147    0.58956    0.85663    1.000
    N5432    N        0.89495    0.75590    0.97225    1.000
    N5433    N        0.88468    0.50612    0.78854    1.000
    N5434    N        0.89120    0.84228    0.08029    1.000
    N5435    N        0.90340    0.78567    0.04385    1.000
    N5436    N        0.91844    0.86528    0.01831    1.000
    Si5437   Si       0.87674    0.80156    0.07682    1.000
    Si5438   Si       0.87904    0.76481    0.01405    1.000
    Si5439   Si       0.92420    0.85841    0.05916    1.000
    Si5440   Si       0.87530    0.86760    0.11459    1.000
    N5441    N        0.87485    0.78356    0.11686    1.000
    Si5442   Si       0.87977    0.86555    0.99819    1.000
    Si5443   Si       0.92615    0.96390    0.01833    1.000
    Si5444   Si       0.91783    0.99709    0.08055    1.000
    N5445    N        0.91658    0.95712    0.05982    1.000
    Si5446   Si       0.90993    0.92487    0.08835    1.000
    N5447    N        0.88633    0.99039    0.10962    1.000
    N5448    N        0.87107    0.90588    0.09609    1.000
    N5449    N        0.92541    0.93881    0.12829    1.000
    N5450    N        0.92793    0.83196    0.19541    1.000
    Si5451   Si       0.88727    0.84575    0.18369    1.000
    N5452    N        0.89784    0.87290    0.15189    1.000
    N5453    N        0.92136    0.98538    0.18177    1.000
    Si5454   Si       0.89969    0.97153    0.14687    1.000
    N5455    N        0.91265    0.92183    0.19959    1.000
    Si5456   Si       0.92461    0.90541    0.16005    1.000
    Si5457   Si       0.87876    0.90878    0.22554    1.000
    N5458    N        0.90584    0.79103    0.33292    1.000
    N5459    N        0.90666    0.79974    0.26034    1.000
    N5460    N        0.91643    0.85463    0.31026    1.000
    Si5461   Si       0.90391    0.87543    0.34680    1.000
    Si5462   Si       0.92185    0.81311    0.29926    1.000
    Si5463   Si       0.92664    0.87881    0.27608    1.000
    N5464    N        0.92617    0.91279    0.35302    1.000
    Si5465   Si       0.92684    0.94970    0.28870    1.000
    N5466    N        0.89174    0.90337    0.26619    1.000
    N5467    N        0.88889    0.95515    0.30905    1.000
    Si5468   Si       0.91162    0.95620    0.35014    1.000
    N5469    N        0.90959    0.00121    0.36361    1.000
    N5470    N        0.92104    0.78745    0.47050    1.000
    Si5471   Si       0.91469    0.86508    0.42671    1.000
    Si5472   Si       0.88982    0.81267    0.39358    1.000
    N5473    N        0.90639    0.85090    0.38201    1.000
    N5474    N        0.87813    0.82863    0.43181    1.000
    N5475    N        0.92111    0.78293    0.39893    1.000
    Si5476   Si       0.88678    0.77274    0.49207    1.000
    N5477    N        0.87579    0.95455    0.37607    1.000
    N5478    N        0.89364    0.88753    0.45721    1.000
    Si5479   Si       0.89271    0.99287    0.46920    1.000
    N5480    N        0.89405    0.95198    0.45275    1.000
    Si5481   Si       0.89564    0.75664    0.25304    1.000
    Si5482   Si       0.89761    0.78563    0.56862    1.000
    N5483    N        0.92383    0.76375    0.59569    1.000
    N5484    N        0.89628    0.76365    0.53273    1.000
    N5485    N        0.92512    0.81933    0.56650    1.000
    Si5486   Si       0.90656    0.88539    0.49921    1.000
    Si5487   Si       0.88099    0.90308    0.56975    1.000
    N5488    N        0.87401    0.89119    0.52661    1.000
    N5489    N        0.91056    0.97622    0.57355    1.000
    N5490    N        0.90778    0.91455    0.60516    1.000
    Si5491   Si       0.92473    0.95428    0.60990    1.000
    N5492    N        0.90559    0.00233    0.51121    1.000
    N5493    N        0.90649    0.83903    0.70197    1.000
    N5494    N        0.88005    0.83517    0.64028    1.000
    N5495    N        0.92563    0.77628    0.73050    1.000
    Si5496   Si       0.87347    0.81873    0.67987    1.000
    Si5497   Si       0.89638    0.87580    0.62869    1.000
    N5498    N        0.87523    0.77634    0.68688    1.000
    N5499    N        0.91926    0.90250    0.73570    1.000
    Si5500   Si       0.92330    0.88087    0.69699    1.000
    N5501    N        0.89320    0.89593    0.67024    1.000
    N5502    N        0.91727    0.97163    0.64857    1.000
    N5503    N        0.88264    0.00321    0.73970    1.000
    Si5504   Si       0.87691    0.98590    0.65695    1.000
    N5505    N        0.90761    0.83346    0.83279    1.000
    Si5506   Si       0.91073    0.77075    0.76990    1.000
    N5507    N        0.89084    0.87107    0.77845    1.000
    Si5508   Si       0.92194    0.79235    0.84071    1.000
    Si5509   Si       0.87906    0.83665    0.79997    1.000
    Si5510   Si       0.92403    0.87129    0.84660    1.000
    N5511    N        0.87948    0.79910    0.78030    1.000
    N5512    N        0.89591    0.77749    0.87037    1.000
    Si5513   Si       0.90911    0.98193    0.76634    1.000
    N5514    N        0.88481    0.94638    0.77485    1.000
    Si5515   Si       0.88229    0.90666    0.75497    1.000
    N5516    N        0.89794    0.89923    0.86636    1.000
    Si5517   Si       0.89238    0.99972    0.83827    1.000
    N5518    N        0.88520    0.83929    0.96149    1.000
    Si5519   Si       0.88036    0.86896    0.93048    1.000
    N5520    N        0.93304    0.77115    0.80511    1.000
    N5521    N        0.91880    0.88754    0.92411    1.000
    N5522    N        0.87162    0.90638    0.98491    1.000
    N5523    N        0.90476    0.94932    0.92834    1.000
    Si5524   Si       0.92051    0.92266    0.89727    1.000
    Si5525   Si       0.89737    0.93783    0.96834    1.000
    N5526    N        0.91557    0.98850    0.87415    1.000
    Si5527   Si       0.88778    0.98365    0.90882    1.000
    N5528    N        0.89594    0.97714    0.99069    1.000
    N5529    N        0.96232    0.07151    0.02418    1.000
    Si5530   Si       0.97150    0.09612    0.11465    1.000
    Si5531   Si       0.93283    0.03769    0.02439    1.000
    N5532    N        0.98307    0.13237    0.00578    1.000
    N5533    N        0.98800    0.06422    0.09102    1.000
    N5534    N        0.96533    0.13604    0.09764    1.000
    Si5535   Si       0.93679    0.23714    0.10482    1.000
    N5536    N        0.95052    0.17406    0.04296    1.000
    Si5537   Si       0.96979    0.17360    0.00368    1.000
    N5538    N        0.94765    0.25594    0.06565    1.000
    Si5539   Si       0.98337    0.23098    0.04744    1.000
    Si5540   Si       0.98426    0.16221    0.06821    1.000
    N5541    N        0.92839    0.11906    0.20109    1.000
    N5542    N        0.94320    0.05006    0.19415    1.000
    Si5543   Si       0.98333    0.03834    0.20802    1.000
    N5544    N        0.93426    0.08960    0.13599    1.000
    N5545    N        0.98584    0.07177    0.23613    1.000
    Si5546   Si       0.94825    0.08925    0.17559    1.000
    Si5547   Si       0.98277    0.16297    0.22997    1.000
    N5548    N        0.95839    0.22783    0.14357    1.000
    Si5549   Si       0.96189    0.18925    0.16249    1.000
    N5550    N        0.95880    0.19155    0.20795    1.000
    N5551    N        0.92933    0.16375    0.14977    1.000
    Si5552   Si       0.92918    0.15804    0.10657    1.000
    N5553    N        0.95779    0.03988    0.35054    1.000
    Si5554   Si       0.96426    0.06728    0.27367    1.000
    N5555    N        0.96049    0.02585    0.28566    1.000
    N5556    N        0.97471    0.09019    0.30879    1.000
    Si5557   Si       0.93493    0.01491    0.31980    1.000
    Si5558   Si       0.98722    0.07197    0.34724    1.000
    N5559    N        0.96319    0.13600    0.25778    1.000
    Si5560   Si       0.96400    0.23624    0.32835    1.000
    N5561    N        0.93458    0.20450    0.33488    1.000
    N5562    N        0.95990    0.24728    0.24932    1.000
    Si5563   Si       0.95075    0.11129    0.46655    1.000
    Si5564   Si       0.95555    0.03492    0.45115    1.000
    N5565    N        0.96814    0.07548    0.44462    1.000
    N5566    N        0.96258    0.01553    0.41322    1.000
    N5567    N        0.97336    0.02157    0.48969    1.000
    Si5568   Si       0.93535    0.03152    0.38484    1.000
    N5569    N        0.98701    0.10047    0.37966    1.000
    Si5570   Si       0.93494    0.17677    0.36716    1.000
    N5571    N        0.97647    0.24170    0.37044    1.000
    N5572    N        0.94855    0.19193    0.44001    1.000
    Si5573   Si       0.93845    0.23448    0.44070    1.000
    N5574    N        0.93210    0.14561    0.49043    1.000
    N5575    N        0.94488    0.24476    0.48175    1.000
    N5576    N        0.97741    0.17209    0.37998    1.000
    N5577    N        0.94953    0.03652    0.55646    1.000
    Si5578   Si       0.96789    0.05271    0.51979    1.000
    N5579    N        0.94945    0.09316    0.60790    1.000
    Si5580   Si       0.97687    0.12377    0.59544    1.000
    Si5581   Si       0.93503    0.12388    0.52661    1.000
    N5582    N        0.94641    0.08607    0.50318    1.000
    Si5583   Si       0.93429    0.05332    0.59300    1.000
    N5584    N        0.96907    0.13031    0.55294    1.000
    N5585    N        0.95199    0.21442    0.54224    1.000
    Si5586   Si       0.96052    0.23751    0.57674    1.000
    Si5587   Si       0.97478    0.22649    0.50732    1.000
    N5588    N        0.93451    0.21630    0.60387    1.000
    N5589    N        0.94216    0.02638    0.62537    1.000
    N5590    N        0.95361    0.07731    0.67721    1.000
    Si5591   Si       0.95873    0.12315    0.70797    1.000
    N5592    N        0.94195    0.01574    0.69713    1.000
    Si5593   Si       0.95894    0.01496    0.73607    1.000
    Si5594   Si       0.93171    0.10058    0.64666    1.000
    N5595    N        0.98337    0.15812    0.62421    1.000
    N5596    N        0.94227    0.19450    0.66278    1.000
    Si5597   Si       0.97055    0.20164    0.62630    1.000
    N5598    N        0.98512    0.15666    0.69800    1.000
    Si5599   Si       0.97486    0.19908    0.69051    1.000
    N5600    N        0.95866    0.21908    0.72516    1.000
    N5601    N        0.93725    0.12750    0.74615    1.000
    N5602    N        0.96992    0.10767    0.79922    1.000
    N5603    N        0.95595    0.04812    0.76460    1.000
    N5604    N        0.94403    0.05587    0.83506    1.000
    Si5605   Si       0.97576    0.08694    0.83839    1.000
    Si5606   Si       0.98401    0.08153    0.76686    1.000
    Si5607   Si       0.92829    0.22370    0.97460    1.000
    Si5608   Si       0.95922    0.14574    0.77953    1.000
    Si5609   Si       0.95336    0.22192    0.79947    1.000
    N5610    N        0.95136    0.23452    0.84216    1.000
    N5611    N        0.93384    0.18252    0.79067    1.000
    N5612    N        0.93959    0.25700    0.77718    1.000
    Si5613   Si       0.97069    0.15293    0.86861    1.000
    N5614    N        0.93027    0.17491    0.86713    1.000
    N5615    N        0.96950    0.10760    0.87540    1.000
    Si5616   Si       0.95124    0.10023    0.91585    1.000
    N5617    N        0.96921    0.08936    0.95303    1.000
    Si5618   Si       0.95909    0.10045    0.99288    1.000
    N5619    N        0.93843    0.18125    0.97298    1.000
    N5620    N        0.96352    0.24757    0.96418    1.000
    Si5621   Si       0.96769    0.36308    0.09471    1.000
    N5622    N        0.93648    0.29578    0.00467    1.000
    Si5623   Si       0.93415    0.34042    0.00486    1.000
    N5624    N        0.97565    0.35314    0.00405    1.000
    Si5625   Si       0.97787    0.28870    0.07783    1.000
    N5626    N        0.98196    0.33087    0.07036    1.000
    N5627    N        0.97735    0.28528    0.12120    1.000
    N5628    N        0.93768    0.34289    0.12058    1.000
    N5629    N        0.94347    0.39432    0.07588    1.000
    N5630    N        0.94358    0.46836    0.06017    1.000
    Si5631   Si       0.94418    0.43402    0.08846    1.000
    N5632    N        0.97572    0.33729    0.17692    1.000
    N5633    N        0.94070    0.31643    0.23559    1.000
    Si5634   Si       0.95398    0.31395    0.14565    1.000
    Si5635   Si       0.96693    0.30247    0.20318    1.000
    N5636    N        0.93379    0.44755    0.12873    1.000
    N5637    N        0.96402    0.40684    0.18094    1.000
    Si5638   Si       0.96205    0.50123    0.21236    1.000
    Si5639   Si       0.92954    0.49074    0.14044    1.000
    N5640    N        0.95976    0.48100    0.17343    1.000
    Si5641   Si       0.97139    0.44282    0.15557    1.000
    Si5642   Si       0.98788    0.47165    0.06179    1.000
    Si5643   Si       0.94478    0.28205    0.27135    1.000
    Si5644   Si       0.97270    0.34469    0.30022    1.000
    N5645    N        0.93921    0.26974    0.31714    1.000
    N5646    N        0.96115    0.37695    0.27067    1.000
    Si5647   Si       0.93711    0.30506    0.34439    1.000
    N5648    N        0.93670    0.34048    0.32166    1.000
    N5649    N        0.98301    0.30720    0.28145    1.000
    N5650    N        0.97219    0.31212    0.36933    1.000
    N5651    N        0.96327    0.45410    0.30268    1.000
    Si5652   Si       0.94450    0.41762    0.28345    1.000
    Si5653   Si       0.94524    0.47621    0.33709    1.000
    N5654    N        0.95785    0.27301    0.42985    1.000
    Si5655   Si       0.94521    0.28744    0.47007    1.000
    Si5656   Si       0.98500    0.27804    0.39306    1.000
    N5657    N        0.96675    0.37740    0.38266    1.000
    N5658    N        0.96936    0.31326    0.49606    1.000
    Si5659   Si       0.93248    0.47160    0.46921    1.000
    N5660    N        0.96132    0.49512    0.44615    1.000
    N5661    N        0.93727    0.39802    0.44446    1.000
    Si5662   Si       0.97305    0.46897    0.41176    1.000
    N5663    N        0.94749    0.46021    0.37885    1.000
    Si5664   Si       0.97376    0.39078    0.42231    1.000
    Si5665   Si       0.94549    0.40132    0.48840    1.000
    N5666    N        0.95487    0.28012    0.56715    1.000
    N5667    N        0.95242    0.33914    0.61438    1.000
    Si5668   Si       0.98106    0.29403    0.53466    1.000
    Si5669   Si       0.97215    0.37802    0.61043    1.000
    Si5670   Si       0.93008    0.31354    0.58377    1.000
    N5671    N        0.98365    0.38457    0.50333    1.000
    N5672    N        0.96311    0.47297    0.57067    1.000
    Si5673   Si       0.94205    0.44849    0.54055    1.000
    N5674    N        0.94618    0.40617    0.55058    1.000
    Si5675   Si       0.95138    0.45879    0.60886    1.000
    N5676    N        0.96905    0.42068    0.61914    1.000
    Si5677   Si       0.97851    0.31364    0.64219    1.000
    N5678    N        0.95321    0.27890    0.64068    1.000
    Si5679   Si       0.97614    0.30062    0.72046    1.000
    N5680    N        0.93465    0.28551    0.71830    1.000
    N5681    N        0.98599    0.32020    0.68478    1.000
    Si5682   Si       0.96242    0.47401    0.68660    1.000
    N5683    N        0.98152    0.43507    0.68791    1.000
    N5684    N        0.96565    0.48583    0.64120    1.000
    N5685    N        0.97920    0.49227    0.72669    1.000
    N5686    N        0.94688    0.44374    0.49699    1.000
    Si5687   Si       0.95194    0.29583    0.78761    1.000
    N5688    N        0.94546    0.35497    0.85218    1.000
    N5689    N        0.97567    0.29727    0.82365    1.000
    N5690    N        0.97268    0.32445    0.75842    1.000
    Si5691   Si       0.97992    0.32714    0.85564    1.000
    Si5692   Si       0.97984    0.26643    0.85322    1.000
    Si5693   Si       0.93705    0.35121    0.75875    1.000
    N5694    N        0.94507    0.37974    0.78835    1.000
    Si5695   Si       0.96497    0.47142    0.76274    1.000
    Si5696   Si       0.94493    0.43589    0.85014    1.000
    N5697    N        0.97517    0.48961    0.80137    1.000
    Si5698   Si       0.97916    0.40449    0.79123    1.000
    N5699    N        0.98097    0.42168    0.83257    1.000
    N5700    N        0.98515    0.43182    0.76045    1.000
    N5701    N        0.95484    0.47360    0.86841    1.000
    Si5702   Si       0.97702    0.47999    0.98779    1.000
    Si5703   Si       0.93971    0.37404    0.89090    1.000
    Si5704   Si       0.94831    0.28662    0.96303    1.000
    N5705    N        0.97118    0.36499    0.91647    1.000
    N5706    N        0.98333    0.31111    0.95321    1.000
    N5707    N        0.98286    0.29676    0.88602    1.000
    Si5708   Si       0.98685    0.35734    0.95884    1.000
    N5709    N        0.93408    0.46849    0.99260    1.000
    N5710    N        0.92994    0.41450    0.88447    1.000
    N5711    N        0.94536    0.53522    0.04883    1.000
    Si5712   Si       0.96742    0.61525    0.09030    1.000
    N5713    N        0.95757    0.58382    0.00724    1.000
    N5714    N        0.97868    0.57361    0.09456    1.000
    N5715    N        0.94865    0.51687    0.11497    1.000
    Si5716   Si       0.98502    0.54468    0.06245    1.000
    N5717    N        0.98348    0.64533    0.06156    1.000
    Si5718   Si       0.95327    0.67280    0.04369    1.000
    N5719    N        0.95849    0.71494    0.05329    1.000
    Si5720   Si       0.97847    0.73062    0.01923    1.000
    Si5721   Si       0.94706    0.72757    0.09085    1.000
    N5722    N        0.95364    0.66248    0.00251    1.000
    N5723    N        0.93382    0.61278    0.20978    1.000
    Si5724   Si       0.96916    0.55236    0.13092    1.000
    N5725    N        0.97098    0.54417    0.20907    1.000
    N5726    N        0.93990    0.57267    0.15367    1.000
    Si5727   Si       0.93972    0.57004    0.19581    1.000
    Si5728   Si       0.97227    0.62491    0.22409    1.000
    N5729    N        0.96252    0.69973    0.11990    1.000
    N5730    N        0.97349    0.63266    0.13027    1.000
    Si5731   Si       0.96159    0.72412    0.15875    1.000
    Si5732   Si       0.96222    0.74050    0.22815    1.000
    Si5733   Si       0.94353    0.66282    0.14144    1.000
    N5734    N        0.98105    0.66651    0.23151    1.000
    N5735    N        0.93307    0.69053    0.17320    1.000
    N5736    N        0.93136    0.75627    0.15014    1.000
    N5737    N        0.95565    0.56842    0.30570    1.000
    N5738    N        0.93929    0.61600    0.34674    1.000
    Si5739   Si       0.97832    0.60445    0.29160    1.000
    Si5740   Si       0.98355    0.53647    0.32147    1.000
    Si5741   Si       0.98182    0.62417    0.35374    1.000
    N5742    N        0.94878    0.51813    0.33967    1.000
    N5743    N        0.95426    0.64270    0.28887    1.000
    Si5744   Si       0.97226    0.67951    0.27246    1.000
    Si5745   Si       0.94497    0.74388    0.30273    1.000
    N5746    N        0.94775    0.73445    0.34607    1.000
    N5747    N        0.96563    0.72395    0.27019    1.000
    N5748    N        0.98344    0.66730    0.35898    1.000
    N5749    N        0.95018    0.60964    0.42197    1.000
    N5750    N        0.96350    0.55453    0.47749    1.000
    N5751    N        0.95602    0.62891    0.49209    1.000
    Si5752   Si       0.98007    0.59260    0.49234    1.000
    N5753    N        0.97837    0.66668    0.44083    1.000
    Si5754   Si       0.97915    0.71216    0.44405    1.000
    Si5755   Si       0.95602    0.69953    0.37412    1.000
    N5756    N        0.93836    0.72577    0.43904    1.000
    Si5757   Si       0.94684    0.63985    0.45110    1.000
    N5758    N        0.95579    0.55017    0.61013    1.000
    N5759    N        0.97036    0.61653    0.59898    1.000
    Si5760   Si       0.93549    0.62453    0.57751    1.000
    Si5761   Si       0.96167    0.66527    0.51707    1.000
    N5762    N        0.95783    0.65730    0.55923    1.000
    N5763    N        0.93535    0.70013    0.51440    1.000
    N5764    N        0.97596    0.73592    0.62180    1.000
    Si5765   Si       0.94828    0.52491    0.64388    1.000
    N5766    N        0.96057    0.58875    0.72514    1.000
    N5767    N        0.95827    0.54331    0.67820    1.000
    Si5768   Si       0.96956    0.63256    0.72743    1.000
    Si5769   Si       0.98316    0.70138    0.65038    1.000
    N5770    N        0.94136    0.69322    0.65245    1.000
    N5771    N        0.94628    0.55201    0.79606    1.000
    Si5772   Si       0.98271    0.53150    0.79883    1.000
    Si5773   Si       0.93603    0.57534    0.76105    1.000
    Si5774   Si       0.98282    0.63356    0.85992    1.000
    Si5775   Si       0.93641    0.68680    0.97091    1.000
    Si5776   Si       0.96220    0.69185    0.84237    1.000
    N5777    N        0.97420    0.71245    0.80709    1.000
    N5778    N        0.94530    0.65179    0.84070    1.000
    N5779    N        0.98219    0.64446    0.76709    1.000
    Si5780   Si       0.97271    0.75517    0.80090    1.000
    N5781    N        0.94386    0.71980    0.86905    1.000
    N5782    N        0.98011    0.61442    0.89972    1.000
    N5783    N        0.97243    0.54573    0.91168    1.000
    Si5784   Si       0.93998    0.56142    0.88955    1.000
    N5785    N        0.93865    0.62820    0.95239    1.000
    N5786    N        0.98162    0.52165    0.97942    1.000
    Si5787   Si       0.94366    0.62141    0.99413    1.000
    Si5788   Si       0.96765    0.71782    0.90463    1.000
    Si5789   Si       0.97035    0.64568    0.92823    1.000
    N5790    N        0.94460    0.75500    0.91937    1.000
    N5791    N        0.95347    0.68568    0.93006    1.000
    N5792    N        0.95335    0.72488    0.98429    1.000
    Si5793   Si       0.93582    0.75816    0.96152    1.000
    N5794    N        0.95806    0.83246    0.06111    1.000
    Si5795   Si       0.94743    0.79061    0.05178    1.000
    N5796    N        0.95729    0.76895    0.09057    1.000
    Si5797   Si       0.98316    0.84232    0.09483    1.000
    N5798    N        0.98489    0.77287    0.03157    1.000
    N5799    N        0.95658    0.99890    0.10119    1.000
    Si5800   Si       0.98035    0.90696    0.06544    1.000
    N5801    N        0.93951    0.89671    0.07798    1.000
    Si5802   Si       0.94948    0.89010    0.99947    1.000
    N5803    N        0.98496    0.90179    0.02369    1.000
    Si5804   Si       0.96272    0.95700    0.11547    1.000
    N5805    N        0.95117    0.99944    0.01906    1.000
    N5806    N        0.96741    0.78413    0.22358    1.000
    Si5807   Si       0.95931    0.84666    0.16929    1.000
    N5808    N        0.95970    0.82793    0.13109    1.000
    Si5809   Si       0.93717    0.81419    0.23390    1.000
    Si5810   Si       0.96086    0.78321    0.13107    1.000
    N5811    N        0.96481    0.88902    0.16501    1.000
    N5812    N        0.97851    0.94804    0.20699    1.000
    Si5813   Si       0.93659    0.95646    0.21069    1.000
    N5814    N        0.98816    0.94631    0.08056    1.000
    N5815    N        0.99433    0.95217    0.14459    1.000
    N5816    N        0.95669    0.78648    0.29828    1.000
    N5817    N        0.97354    0.79746    0.36009    1.000
    N5818    N        0.95318    0.84862    0.25680    1.000
    Si5819   Si       0.93708    0.77513    0.35875    1.000
    N5820    N        0.95057    0.91427    0.28354    1.000
    N5821    N        0.94741    0.97184    0.32226    1.000
    Si5822   Si       0.97473    0.99058    0.26766    1.000
    N5823    N        0.93729    0.97196    0.25358    1.000
    Si5824   Si       0.98815    0.96172    0.33934    1.000
    N5825    N        0.95108    0.84348    0.44137    1.000
    Si5826   Si       0.94829    0.82146    0.47764    1.000
    Si5827   Si       0.93860    0.76802    0.43541    1.000
    N5828    N        0.98023    0.77692    0.43088    1.000
    N5829    N        0.98454    0.87658    0.38096    1.000
    Si5830   Si       0.98797    0.86328    0.42406    1.000
    N5831    N        0.96269    0.96334    0.45443    1.000
    Si5832   Si       0.98009    0.97599    0.41699    1.000
    Si5833   Si       0.93236    0.92982    0.45511    1.000
    N5834    N        0.94016    0.90423    0.42027    1.000
    N5835    N        0.93841    0.91474    0.49557    1.000
    Si5836   Si       0.95961    0.91105    0.37985    1.000
    Si5837   Si       0.97875    0.97821    0.49162    1.000
    N5838    N        0.97240    0.95236    0.38112    1.000
    N5839    N        0.98564    0.80238    0.49587    1.000
    Si5840   Si       0.95360    0.79369    0.58841    1.000
    Si5841   Si       0.94758    0.84965    0.54528    1.000
    N5842    N        0.98401    0.77571    0.56541    1.000
    N5843    N        0.92924    0.84957    0.50592    1.000
    Si5844   Si       0.94889    0.99893    0.65807    1.000
    N5845    N        0.96569    0.94247    0.60901    1.000
    Si5846   Si       0.95813    0.89832    0.60004    1.000
    N5847    N        0.96021    0.96599    0.52854    1.000
    Si5848   Si       0.96307    0.92224    0.53050    1.000
    N5849    N        0.94666    0.89229    0.55765    1.000
    Si5850   Si       0.93276    0.99738    0.54385    1.000
    N5851    N        0.96526    0.87486    0.69154    1.000
    N5852    N        0.94209    0.86989    0.63228    1.000
    Si5853   Si       0.97400    0.77619    0.65374    1.000
    Si5854   Si       0.93860    0.81627    0.71715    1.000
    N5855    N        0.96977    0.80903    0.62471    1.000
    Si5856   Si       0.96998    0.84362    0.65377    1.000
    N5857    N        0.96688    0.80949    0.68591    1.000
    N5858    N        0.93421    0.75766    0.66270    1.000
    N5859    N        0.94892    0.83899    0.75261    1.000
    N5860    N        0.96056    0.80070    0.86266    1.000
    Si5861   Si       0.93598    0.87797    0.77204    1.000
    N5862    N        0.93330    0.92788    0.99254    1.000
    N5863    N        0.98740    0.77769    0.76654    1.000
    N5864    N        0.94249    0.89161    0.81382    1.000
    Si5865   Si       0.96780    0.91801    0.83766    1.000
    N5866    N        0.97593    0.95300    0.81300    1.000
    Si5867   Si       0.97853    0.94163    0.77097    1.000
    N5868    N        0.94981    0.97232    0.75509    1.000
    N5869    N        0.98558    0.89717    0.76290    1.000
    N5870    N        0.95520    0.93644    0.87490    1.000
    N5871    N        0.95932    0.86965    0.87423    1.000
    Si5872   Si       0.96276    0.79156    0.90265    1.000
    N5873    N        0.95864    0.86155    0.96803    1.000
    N5874    N        0.95230    0.79419    0.97773    1.000
    Si5875   Si       0.95611    0.86390    0.91867    1.000
    N5876    N        0.93993    0.82289    0.92203    1.000
    Si5877   Si       0.92894    0.82750    0.96413    1.000
    Si5878   Si       0.95689    0.97981    0.88140    1.000
    N5879    N        0.97441    0.98474    0.92145    1.000
