# CIF file generated by openbabel 3.1.1, see https://openbabel.org
data_I
_chemical_name_common '3.01-100.aims'
_cell_length_a 39.9336
_cell_length_b 39.9336
_cell_length_c 39.9336
_cell_angle_alpha 90
_cell_angle_beta 90
_cell_angle_gamma 90
loop_
    _atom_site_label
    _atom_site_type_symbol
    _atom_site_fract_x
    _atom_site_fract_y
    _atom_site_fract_z
    _atom_site_occupancy
    Si0      Si       0.03365    0.05244    0.01138    1.000
    N1       N        0.10086    0.02714    0.04124    1.000
    Si2      Si       0.10483    0.06909    0.03344    1.000
    N3       N        0.03590    0.12305    0.04560    1.000
    Si4      Si       0.04658    0.11364    0.00506    1.000
    N5       N        0.07234    0.07733    0.00551    1.000
    N6       N        0.04349    0.01289    0.99963    1.000
    N7       N        0.02773    0.05307    0.05497    1.000
    N8       N        0.20855    0.01857    0.02796    1.000
    Si9      Si       0.22157    0.10604    0.01366    1.000
    N10      N        0.14585    0.08130    0.02480    1.000
    Si11     Si       0.15254    0.11658    0.99937    1.000
    N12      N        0.20785    0.08881    0.05250    1.000
    N13      N        0.08820    0.20246    0.00723    1.000
    Si14     Si       0.00753    0.22444    0.03222    1.000
    Si15     Si       0.07669    0.20225    0.05033    1.000
    N16      N        0.03305    0.19558    0.04932    1.000
    N17      N        0.03217    0.24182    0.99976    1.000
    Si18     Si       0.16685    0.22249    0.03634    1.000
    N19      N        0.23221    0.18700    0.04123    1.000
    N20      N        0.13183    0.24560    0.03847    1.000
    N21      N        0.12705    0.14730    0.01778    1.000
    N22      N        0.18422    0.20800    0.99846    1.000
    Si23     Si       0.21200    0.17468    0.00345    1.000
    N24      N        0.19175    0.13565    0.00437    1.000
    Si25     Si       0.04320    0.09055    0.07289    1.000
    N26      N        0.08758    0.08887    0.06964    1.000
    Si27     Si       0.01905    0.02355    0.08835    1.000
    N28      N        0.06025    0.01932    0.10634    1.000
    Si29     Si       0.21958    0.01249    0.07024    1.000
    Si30     Si       0.11761    0.09483    0.09947    1.000
    N31      N        0.22108    0.04607    0.09677    1.000
    N32      N        0.15040    0.12288    0.08322    1.000
    N33      N        0.14234    0.06006    0.09408    1.000
    Si34     Si       0.16676    0.08074    0.06392    1.000
    Si35     Si       0.18007    0.13106    0.11334    1.000
    N36      N        0.00002    0.25488    0.06162    1.000
    Si37     Si       0.03813    0.25669    0.08454    1.000
    N38      N        0.09779    0.17284    0.07528    1.000
    N39      N        0.03737    0.15728    0.10650    1.000
    Si40     Si       0.02077    0.15796    0.06611    1.000
    N41      N        0.07746    0.23911    0.07399    1.000
    Si42     Si       0.08005    0.15785    0.11221    1.000
    N43      N        0.21765    0.14882    0.09672    1.000
    Si44     Si       0.18433    0.24852    0.10587    1.000
    N45      N        0.16655    0.18664    0.06008    1.000
    Si46     Si       0.13439    0.15689    0.05844    1.000
    N47      N        0.19546    0.24169    0.06386    1.000
    Si48     Si       0.20815    0.18663    0.07845    1.000
    Si49     Si       0.05941    0.10021    0.14770    1.000
    Si50     Si       0.07425    0.02632    0.14813    1.000
    N51      N        0.09378    0.11819    0.12670    1.000
    N52      N        0.06380    0.06490    0.17245    1.000
    Si53     Si       0.98772    0.07814    0.12708    1.000
    N54      N        0.98851    0.08900    0.17005    1.000
    N55      N        0.02975    0.08972    0.11616    1.000
    N56      N        0.11759    0.02704    0.15099    1.000
    Si57     Si       0.20366    0.05157    0.13755    1.000
    N58      N        0.18921    0.09366    0.13898    1.000
    N59      N        0.17893    0.01563    0.14092    1.000
    Si60     Si       0.18205    0.11912    0.17247    1.000
    Si61     Si       0.14072    0.02420    0.11507    1.000
    N62      N        0.04422    0.13538    0.17054    1.000
    N63      N        0.02960    0.24745    0.12822    1.000
    Si64     Si       0.06016    0.22247    0.15057    1.000
    N65      N        0.03187    0.19455    0.16992    1.000
    N66      N        0.09091    0.24988    0.15955    1.000
    N67      N        0.08980    0.18633    0.14374    1.000
    Si68     Si       0.01759    0.16319    0.14435    1.000
    Si69     Si       0.23784    0.20114    0.14927    1.000
    N70      N        0.16480    0.15152    0.14921    1.000
    Si71     Si       0.13030    0.17818    0.15973    1.000
    N72      N        0.20713    0.21242    0.11721    1.000
    N73      N        0.14917    0.21632    0.17156    1.000
    Si74     Si       0.01239    0.11477    0.19610    1.000
    Si75     Si       0.06821    0.07353    0.21582    1.000
    N76      N        0.10705    0.08991    0.22820    1.000
    N77      N        0.03685    0.10269    0.22935    1.000
    N78      N        0.16227    0.11483    0.21094    1.000
    N79      N        0.16548    0.05135    0.19749    1.000
    N80      N        0.22130    0.12143    0.19294    1.000
    Si81     Si       0.14471    0.06706    0.22922    1.000
    Si82     Si       0.15069    0.01785    0.17559    1.000
    Si83     Si       0.12440    0.12991    0.22448    1.000
    N84      N        0.10841    0.14975    0.19013    1.000
    N85      N        0.01305    0.25318    0.19762    1.000
    Si86     Si       0.07064    0.17023    0.18479    1.000
    Si87     Si       0.00262    0.21256    0.20070    1.000
    N88      N        0.07151    0.19876    0.21756    1.000
    Si89     Si       0.12952    0.25693    0.17570    1.000
    N90      N        0.12380    0.25831    0.21819    1.000
    Si91     Si       0.18452    0.21807    0.20088    1.000
    N92      N        0.22194    0.19986    0.18974    1.000
    Si93     Si       0.02438    0.02688    0.25421    1.000
    Si94     Si       0.09716    0.03728    0.27065    1.000
    Si95     Si       0.03454    0.11389    0.27327    1.000
    N96      N        0.06144    0.04536    0.24716    1.000
    N97      N        0.07355    0.12865    0.28633    1.000
    N98      N        0.99270    0.05612    0.25745    1.000
    N99      N        0.17587    0.07562    0.26174    1.000
    Si100    Si       0.20715    0.04390    0.25733    1.000
    N101     N        0.13033    0.02855    0.24659    1.000
    Si102    Si       0.20219    0.10688    0.23391    1.000
    N103     N        0.23258    0.07111    0.23467    1.000
    N104     N        0.00594    0.14637    0.27725    1.000
    N105     N        0.10733    0.22838    0.27663    1.000
    Si106    Si       0.07193    0.22346    0.25300    1.000
    N107     N        0.05593    0.19273    0.28039    1.000
    Si108    Si       0.09135    0.16778    0.28361    1.000
    N109     N        0.99111    0.20326    0.24283    1.000
    N110     N        0.12805    0.15752    0.25906    1.000
    N111     N        0.20414    0.14290    0.25886    1.000
    N112     N        0.16917    0.20322    0.23822    1.000
    Si113    Si       0.17140    0.17011    0.26414    1.000
    Si114    Si       0.14133    0.23494    0.25045    1.000
    N115     N        0.02323    0.08973    0.30876    1.000
    Si116    Si       0.09480    0.10510    0.31609    1.000
    Si117    Si       0.99903    0.05679    0.30090    1.000
    Si118    Si       0.02793    0.11302    0.34502    1.000
    N119     N        0.02351    0.02073    0.29855    1.000
    N120     N        0.11218    0.06352    0.30232    1.000
    N121     N        0.13675    0.11997    0.31748    1.000
    N122     N        0.17008    0.05918    0.33234    1.000
    Si123    Si       0.21276    0.04628    0.33366    1.000
    Si124    Si       0.13093    0.04323    0.33928    1.000
    Si125    Si       0.15414    0.08308    0.29985    1.000
    N126     N        0.22787    0.03851    0.29458    1.000
    Si127    Si       0.01640    0.23579    0.34233    1.000
    Si128    Si       0.09508    0.22829    0.31875    1.000
    N129     N        0.02432    0.15924    0.34197    1.000
    N130     N        0.05758    0.24092    0.33250    1.000
    N131     N        0.10416    0.18382    0.32188    1.000
    Si132    Si       0.02074    0.17763    0.30255    1.000
    N133     N        0.99585    0.21360    0.31222    1.000
    N134     N        0.17498    0.18221    0.30867    1.000
    N135     N        0.23840    0.22233    0.32542    1.000
    N136     N        0.23643    0.15241    0.32248    1.000
    Si137    Si       0.14189    0.16330    0.32884    1.000
    Si138    Si       0.21149    0.18678    0.33110    1.000
    N139     N        0.12640    0.25808    0.33265    1.000
    N140     N        0.01390    0.03704    0.38469    1.000
    Si141    Si       0.08362    0.11688    0.39507    1.000
    N142     N        0.99885    0.10090    0.37451    1.000
    N143     N        0.10762    0.04347    0.37717    1.000
    Si144    Si       0.01472    0.07415    0.40502    1.000
    N145     N        0.07291    0.11288    0.35239    1.000
    Si146    Si       0.23023    0.09608    0.38588    1.000
    N147     N        0.19450    0.11976    0.39497    1.000
    Si148    Si       0.00834    0.17467    0.37928    1.000
    N149     N        0.01295    0.21731    0.38274    1.000
    N150     N        0.11119    0.22244    0.39759    1.000
    Si151    Si       0.11927    0.18077    0.40305    1.000
    Si152    Si       0.17817    0.15885    0.39224    1.000
    N153     N        0.19881    0.19236    0.37323    1.000
    Si154    Si       0.13435    0.25562    0.37483    1.000
    Si155    Si       0.20618    0.22961    0.39777    1.000
    N156     N        0.17420    0.25855    0.39208    1.000
    N157     N        0.14133    0.16182    0.37177    1.000
    N158     N        0.09235    0.03297    0.44255    1.000
    N159     N        0.99908    0.07113    0.44522    1.000
    N160     N        0.05382    0.09117    0.41147    1.000
    Si161    Si       0.11681    0.05678    0.41585    1.000
    N162     N        0.16143    0.05393    0.42359    1.000
    Si163    Si       0.19969    0.04082    0.43744    1.000
    Si164    Si       0.16283    0.09948    0.41767    1.000
    N165     N        0.17128    0.11206    0.45753    1.000
    N166     N        0.12075    0.10146    0.40884    1.000
    N167     N        0.22979    0.05693    0.40864    1.000
    N168     N        0.03859    0.21347    0.44676    1.000
    Si169    Si       0.05267    0.17327    0.43576    1.000
    Si170    Si       0.01806    0.24110    0.41684    1.000
    N171     N        0.09228    0.24973    0.46381    1.000
    N172     N        0.01412    0.15891    0.42129    1.000
    Si173    Si       0.09021    0.25512    0.41951    1.000
    N174     N        0.08191    0.15949    0.40504    1.000
    N175     N        0.15322    0.17144    0.42840    1.000
    Si176    Si       0.16333    0.15356    0.46621    1.000
    N177     N        0.21377    0.22077    0.44071    1.000
    N178     N        0.05801    0.08168    0.48598    1.000
    Si179    Si       0.07909    0.04428    0.48332    1.000
    N180     N        0.03985    0.02330    0.48845    1.000
    Si181    Si       0.05861    0.12197    0.50165    1.000
    Si182    Si       0.02128    0.06006    0.47987    1.000
    N183     N        0.10033    0.03764    0.52001    1.000
    Si184    Si       0.18406    0.08928    0.48992    1.000
    N185     N        0.20981    0.05530    0.47851    1.000
    N186     N        0.15057    0.08225    0.51578    1.000
    N187     N        0.21167    0.10531    0.52118    1.000
    Si188    Si       0.20288    0.01168    0.49193    1.000
    N189     N        0.16349    0.00747    0.51095    1.000
    Si190    Si       0.13222    0.11997    0.52516    1.000
    N191     N        0.05466    0.22127    0.51862    1.000
    Si192    Si       0.05206    0.23750    0.47880    1.000
    Si193    Si       0.98967    0.14749    0.52199    1.000
    N194     N        0.06331    0.15009    0.46983    1.000
    N195     N        0.15625    0.22350    0.49081    1.000
    Si196    Si       0.22975    0.14103    0.50091    1.000
    Si197    Si       0.12892    0.25660    0.48616    1.000
    N198     N        0.22147    0.22786    0.51005    1.000
    N199     N        0.13834    0.15508    0.50094    1.000
    Si200    Si       0.19698    0.21078    0.47872    1.000
    Si201    Si       0.14421    0.19284    0.51934    1.000
    N202     N        0.20274    0.16800    0.48113    1.000
    N203     N        0.04467    0.05793    0.56006    1.000
    Si204    Si       0.02783    0.01901    0.56168    1.000
    Si205    Si       0.08297    0.06914    0.54541    1.000
    N206     N        0.09023    0.11067    0.53041    1.000
    N207     N        0.10106    0.07574    0.58663    1.000
    N208     N        0.21218    0.03478    0.55583    1.000
    N209     N        0.14929    0.03771    0.57222    1.000
    Si210    Si       0.14226    0.04081    0.52969    1.000
    Si211    Si       0.23099    0.07286    0.54525    1.000
    Si212    Si       0.03511    0.18750    0.53635    1.000
    Si213    Si       0.08693    0.23951    0.54385    1.000
    N214     N        0.04375    0.18815    0.57975    1.000
    N215     N        0.03254    0.14431    0.52786    1.000
    N216     N        0.11162    0.20535    0.54296    1.000
    N217     N        0.99346    0.19414    0.52348    1.000
    N218     N        0.17726    0.18736    0.54721    1.000
    Si219    Si       0.16279    0.16617    0.58263    1.000
    Si220    Si       0.21792    0.20341    0.54560    1.000
    N221     N        0.13978    0.13482    0.56427    1.000
    N222     N        0.21334    0.22881    0.58337    1.000
    N223     N        0.04969    0.06607    0.63294    1.000
    Si224    Si       0.04854    0.02342    0.62629    1.000
    Si225    Si       0.05396    0.08830    0.59676    1.000
    N226     N        0.01444    0.01719    0.60160    1.000
    N227     N        0.01805    0.11426    0.59212    1.000
    N228     N        0.07626    0.13071    0.60203    1.000
    N229     N        0.08559    0.01098    0.60330    1.000
    Si230    Si       0.11590    0.11659    0.59407    1.000
    Si231    Si       0.12006    0.04111    0.60605    1.000
    N232     N        0.21611    0.03315    0.62319    1.000
    N233     N        0.13921    0.12262    0.62790    1.000
    Si234    Si       0.18633    0.02214    0.59146    1.000
    Si235    Si       0.23348    0.12884    0.60580    1.000
    Si236    Si       0.99226    0.25185    0.63883    1.000
    Si237    Si       0.03769    0.15231    0.60269    1.000
    N238     N        0.02192    0.24925    0.60966    1.000
    Si239    Si       0.05596    0.22329    0.60293    1.000
    N240     N        0.08620    0.24832    0.58613    1.000
    N241     N        0.14957    0.20011    0.61092    1.000
    Si242    Si       0.17404    0.23776    0.60337    1.000
    N243     N        0.19627    0.14822    0.60592    1.000
    N244     N        0.08539    0.11276    0.67631    1.000
    N245     N        0.00845    0.09791    0.67510    1.000
    Si246    Si       0.05068    0.08510    0.67118    1.000
    Si247    Si       0.99198    0.13195    0.65810    1.000
    N248     N        0.12594    0.05637    0.64782    1.000
    Si249    Si       0.12307    0.09744    0.66005    1.000
    Si250    Si       0.14202    0.01838    0.66260    1.000
    N251     N        0.16038    0.10456    0.68374    1.000
    N252     N        0.17928    0.01365    0.68520    1.000
    N253     N        0.21922    0.10563    0.64554    1.000
    Si254    Si       0.23311    0.11030    0.68694    1.000
    Si255    Si       0.18068    0.13038    0.64801    1.000
    Si256    Si       0.03274    0.19387    0.66677    1.000
    Si257    Si       0.09648    0.23619    0.67033    1.000
    N258     N        0.99456    0.21597    0.66280    1.000
    N259     N        0.06660    0.21436    0.64515    1.000
    N260     N        0.02274    0.15775    0.64322    1.000
    N261     N        0.23974    0.22188    0.68328    1.000
    N262     N        0.12837    0.20756    0.68041    1.000
    Si263    Si       0.21565    0.25745    0.66851    1.000
    Si264    Si       0.21876    0.18434    0.69086    1.000
    Si265    Si       0.15945    0.20214    0.65261    1.000
    N266     N        0.18232    0.23916    0.64676    1.000
    N267     N        0.18217    0.16860    0.67061    1.000
    N268     N        0.05017    0.12003    0.73565    1.000
    Si269    Si       0.06292    0.07800    0.73951    1.000
    N270     N        0.10170    0.01753    0.73755    1.000
    Si271    Si       0.00138    0.03588    0.75549    1.000
    N272     N        0.10152    0.08542    0.75812    1.000
    Si273    Si       0.07385    0.01368    0.70016    1.000
    N274     N        0.06068    0.05484    0.70162    1.000
    Si275    Si       0.18822    0.02591    0.72531    1.000
    N276     N        0.16270    0.05845    0.73830    1.000
    N277     N        0.21512    0.10324    0.72508    1.000
    Si278    Si       0.17279    0.10001    0.72558    1.000
    N279     N        0.22923    0.03992    0.74008    1.000
    Si280    Si       0.12509    0.04791    0.75698    1.000
    Si281    Si       0.23169    0.08005    0.75877    1.000
    Si282    Si       0.11596    0.12722    0.75940    1.000
    N283     N        0.15841    0.12387    0.75882    1.000
    Si284    Si       0.05340    0.21321    0.73026    1.000
    N285     N        0.01192    0.22369    0.73452    1.000
    N286     N        0.07554    0.24338    0.70853    1.000
    Si287    Si       0.07338    0.14257    0.70597    1.000
    N288     N        0.11009    0.15372    0.72606    1.000
    N289     N        0.05281    0.17973    0.70052    1.000
    N290     N        0.20404    0.19689    0.73033    1.000
    N291     N        0.14315    0.20801    0.74924    1.000
    Si292    Si       0.13555    0.18444    0.71600    1.000
    Si293    Si       0.22483    0.23579    0.73256    1.000
    Si294    Si       0.02189    0.11367    0.77125    1.000
    N295     N        0.05877    0.02476    0.81412    1.000
    N296     N        0.02809    0.09752    0.81986    1.000
    N297     N        0.02885    0.06818    0.76210    1.000
    N298     N        0.13168    0.03054    0.79681    1.000
    N299     N        0.20699    0.02709    0.80202    1.000
    N300     N        0.21283    0.09209    0.79690    1.000
    Si301    Si       0.18321    0.12749    0.79516    1.000
    Si302    Si       0.23739    0.01182    0.77507    1.000
    N303     N        0.07611    0.20484    0.76697    1.000
    N304     N        0.01263    0.22390    0.81029    1.000
    N305     N        0.09935    0.14311    0.79489    1.000
    Si306    Si       0.06723    0.17371    0.79531    1.000
    N307     N        0.02776    0.15683    0.78516    1.000
    Si308    Si       0.99635    0.18468    0.79814    1.000
    Si309    Si       0.11247    0.22664    0.77305    1.000
    N310     N        0.18978    0.17011    0.79466    1.000
    Si311    Si       0.18194    0.20322    0.76624    1.000
    N312     N        0.12108    0.21969    0.81479    1.000
    N313     N        0.19993    0.24154    0.77129    1.000
    N314     N        0.09712    0.07630    0.83659    1.000
    Si315    Si       0.03227    0.05500    0.83294    1.000
    Si316    Si       0.10177    0.03482    0.82532    1.000
    N317     N        0.04699    0.06095    0.87426    1.000
    N318     N        0.99519    0.03330    0.83578    1.000
    N319     N        0.08878    0.13096    0.86738    1.000
    Si320    Si       0.11057    0.11743    0.82942    1.000
    Si321    Si       0.99353    0.12122    0.83718    1.000
    N322     N        0.99688    0.11298    0.88037    1.000
    N323     N        0.11159    0.01035    0.86083    1.000
    N324     N        0.15525    0.11462    0.82835    1.000
    N325     N        0.19034    0.06751    0.86174    1.000
    Si326    Si       0.17912    0.11020    0.86399    1.000
    Si327    Si       0.21799    0.06036    0.82843    1.000
    Si328    Si       0.04466    0.22825    0.83924    1.000
    N329     N        0.06004    0.18765    0.83670    1.000
    Si330    Si       0.07778    0.17202    0.87296    1.000
    N331     N        0.02911    0.23462    0.87913    1.000
    N332     N        0.17664    0.19930    0.85739    1.000
    Si333    Si       0.20563    0.17748    0.83652    1.000
    N334     N        0.21322    0.13761    0.85523    1.000
    Si335    Si       0.13818    0.21630    0.85402    1.000
    Si336    Si       0.01895    0.08260    0.90188    1.000
    N337     N        0.00671    0.04334    0.91889    1.000
    Si338    Si       0.03816    0.02409    0.90120    1.000
    N339     N        0.05240    0.10321    0.91894    1.000
    N340     N        0.07244    0.01560    0.92294    1.000
    Si341    Si       0.10838    0.02715    0.90030    1.000
    Si342    Si       0.08031    0.08980    0.88078    1.000
    N343     N        0.11163    0.06997    0.90371    1.000
    Si344    Si       0.14629    0.08508    0.92399    1.000
    N345     N        0.15776    0.12106    0.89769    1.000
    Si346    Si       0.21107    0.03782    0.88764    1.000
    N347     N        0.22277    0.11898    0.92776    1.000
    N348     N        0.23794    0.05749    0.91632    1.000
    N349     N        0.17534    0.05585    0.93296    1.000
    Si350    Si       0.17265    0.01227    0.93697    1.000
    Si351    Si       0.04153    0.21598    0.91538    1.000
    N352     N        0.05091    0.17385    0.90794    1.000
    N353     N        0.10964    0.20067    0.88334    1.000
    Si354    Si       0.11082    0.20737    0.92657    1.000
    Si355    Si       0.15323    0.14671    0.93353    1.000
    N356     N        0.18602    0.17518    0.94035    1.000
    N357     N        0.01296    0.08685    0.99194    1.000
    N358     N        0.14773    0.11096    0.95790    1.000
    N359     N        0.22367    0.07457    0.98407    1.000
    Si360    Si       0.21350    0.07996    0.94194    1.000
    N361     N        0.06657    0.14070    0.97772    1.000
    Si362    Si       0.07343    0.23461    0.98360    1.000
    N363     N        0.00583    0.14756    0.95581    1.000
    Si364    Si       0.10147    0.16557    0.98745    1.000
    Si365    Si       0.00489    0.25259    0.96612    1.000
    N366     N        0.00816    0.21671    0.94265    1.000
    Si367    Si       0.04713    0.14300    0.93855    1.000
    N368     N        0.07436    0.22590    0.94157    1.000
    Si369    Si       0.22782    0.16101    0.93846    1.000
    N370     N        0.14082    0.23605    0.94345    1.000
    N371     N        0.11910    0.17158    0.94754    1.000
    Si372    Si       0.17740    0.21575    0.95585    1.000
    N373     N        0.20951    0.23823    0.94076    1.000
    N374     N        0.04477    0.31746    0.01586    1.000
    N375     N        0.00782    0.37436    0.01823    1.000
    Si376    Si       0.00097    0.33030    0.00960    1.000
    N377     N        0.10488    0.30313    0.05059    1.000
    Si378    Si       0.06615    0.32299    0.05493    1.000
    Si379    Si       0.12202    0.28189    0.01571    1.000
    N380     N        0.19278    0.33972    0.01901    1.000
    Si381    Si       0.16816    0.37517    0.02420    1.000
    Si382    Si       0.23048    0.32256    0.02888    1.000
    N383     N        0.08882    0.47261    0.00343    1.000
    N384     N        0.07829    0.39194    0.01482    1.000
    Si385    Si       0.03783    0.40558    0.02110    1.000
    Si386    Si       0.08387    0.46814    0.04817    1.000
    Si387    Si       0.10165    0.38990    0.05195    1.000
    N388     N        0.04545    0.48468    0.05348    1.000
    N389     N        0.19210    0.41044    0.01977    1.000
    N390     N        0.17245    0.47039    0.03945    1.000
    Si391    Si       0.18541    0.48282    0.00127    1.000
    N392     N        0.04470    0.29970    0.08458    1.000
    N393     N        0.07346    0.36320    0.07149    1.000
    N394     N        0.01282    0.36062    0.10612    1.000
    Si395    Si       0.11299    0.26504    0.07323    1.000
    N396     N        0.14439    0.26874    0.10438    1.000
    N397     N        0.22468    0.30211    0.07226    1.000
    Si398    Si       0.21031    0.31732    0.10786    1.000
    N399     N        0.17006    0.33754    0.10962    1.000
    Si400    Si       0.16261    0.37775    0.09619    1.000
    Si401    Si       0.23161    0.26274    0.05514    1.000
    N402     N        0.14256    0.37692    0.05725    1.000
    Si403    Si       0.04127    0.38888    0.09199    1.000
    Si404    Si       0.01869    0.45767    0.07338    1.000
    N405     N        0.09884    0.43130    0.06749    1.000
    N406     N        0.03088    0.41857    0.06172    1.000
    N407     N        0.11039    0.49173    0.07237    1.000
    Si408    Si       0.11783    0.44337    0.10608    1.000
    Si409    Si       0.23497    0.42383    0.10036    1.000
    N410     N        0.23267    0.45286    0.06779    1.000
    N411     N        0.15869    0.45880    0.10344    1.000
    N412     N        0.19651    0.40442    0.08802    1.000
    Si413    Si       0.15300    0.48732    0.07266    1.000
    Si414    Si       0.19196    0.43578    0.05536    1.000
    N415     N        0.02994    0.30896    0.15446    1.000
    Si416    Si       0.00868    0.27025    0.15732    1.000
    Si417    Si       0.09749    0.37749    0.13151    1.000
    N418     N        0.10824    0.33573    0.13536    1.000
    Si419    Si       0.01820    0.31845    0.11433    1.000
    N420     N        0.20237    0.27961    0.13134    1.000
    Si421    Si       0.14143    0.30825    0.12234    1.000
    N422     N        0.14871    0.29504    0.16495    1.000
    Si423    Si       0.09379    0.50313    0.15193    1.000
    N424     N        0.08907    0.46326    0.13370    1.000
    Si425    Si       0.05229    0.44184    0.14061    1.000
    N426     N        0.06309    0.40352    0.12520    1.000
    N427     N        0.02185    0.46452    0.11743    1.000
    Si428    Si       0.18058    0.44733    0.14057    1.000
    N429     N        0.16673    0.48031    0.16521    1.000
    N430     N        0.13186    0.40177    0.11928    1.000
    N431     N        0.22321    0.44742    0.13372    1.000
    N432     N        0.18308    0.41065    0.16587    1.000
    N433     N        0.08714    0.31571    0.20057    1.000
    N434     N        0.03641    0.36722    0.19456    1.000
    Si435    Si       0.04695    0.32566    0.18919    1.000
    N436     N        0.01807    0.31649    0.22424    1.000
    Si437    Si       0.00783    0.35826    0.22684    1.000
    Si438    Si       0.12013    0.33569    0.17842    1.000
    Si439    Si       0.19449    0.34683    0.21131    1.000
    N440     N        0.15672    0.35626    0.19298    1.000
    N441     N        0.21564    0.32359    0.18125    1.000
    N442     N        0.19262    0.25939    0.20544    1.000
    Si443    Si       0.19124    0.28934    0.17282    1.000
    N444     N        0.10147    0.38331    0.17623    1.000
    N445     N        0.11098    0.50174    0.19178    1.000
    Si446    Si       0.06587    0.39726    0.19690    1.000
    N447     N        0.05159    0.43636    0.18301    1.000
    Si448    Si       0.21899    0.40672    0.18914    1.000
    N449     N        0.21655    0.37943    0.22596    1.000
    N450     N        0.13855    0.43038    0.20970    1.000
    Si451    Si       0.14464    0.39791    0.18062    1.000
    Si452    Si       0.14281    0.47238    0.20057    1.000
    N453     N        0.23093    0.44563    0.20095    1.000
    N454     N        0.02130    0.37554    0.26491    1.000
    N455     N        0.05884    0.26461    0.24613    1.000
    Si456    Si       0.09627    0.28742    0.23385    1.000
    Si457    Si       0.01871    0.27506    0.23523    1.000
    N458     N        0.11888    0.30604    0.26836    1.000
    Si459    Si       0.19712    0.27784    0.24646    1.000
    Si460    Si       0.15158    0.33629    0.26858    1.000
    N461     N        0.18521    0.31895    0.24587    1.000
    N462     N        0.14249    0.37627    0.26016    1.000
    N463     N        0.23468    0.26663    0.26019    1.000
    N464     N        0.16870    0.26047    0.27570    1.000
    Si465    Si       0.05145    0.40445    0.27010    1.000
    N466     N        0.08081    0.40255    0.23701    1.000
    Si467    Si       0.01726    0.47922    0.28515    1.000
    N468     N        0.03548    0.44188    0.28106    1.000
    N469     N        0.99631    0.48590    0.24776    1.000
    Si470    Si       0.12162    0.41162    0.24659    1.000
    N471     N        0.16121    0.49211    0.23612    1.000
    N472     N        0.22405    0.47751    0.26448    1.000
    N473     N        0.11998    0.44612    0.27479    1.000
    Si474    Si       0.13669    0.48593    0.27114    1.000
    Si475    Si       0.20111    0.50840    0.24425    1.000
    Si476    Si       0.24060    0.38110    0.26207    1.000
    N477     N        0.04629    0.33604    0.31795    1.000
    Si478    Si       0.07452    0.36525    0.33275    1.000
    Si479    Si       0.01053    0.35830    0.30188    1.000
    Si480    Si       0.01452    0.31197    0.33830    1.000
    N481     N        0.99541    0.38013    0.33593    1.000
    Si482    Si       0.19432    0.34667    0.32440    1.000
    N483     N        0.16077    0.32538    0.31035    1.000
    Si484    Si       0.14254    0.28656    0.30220    1.000
    N485     N        0.22284    0.36090    0.29698    1.000
    Si486    Si       0.10187    0.43128    0.31311    1.000
    N487     N        0.07977    0.39408    0.30205    1.000
    N488     N        0.07538    0.45335    0.34197    1.000
    N489     N        0.20863    0.44223    0.32483    1.000
    Si490    Si       0.24063    0.45624    0.29945    1.000
    N491     N        0.16157    0.49088    0.30565    1.000
    Si492    Si       0.16786    0.45815    0.33503    1.000
    N493     N        0.13847    0.42696    0.33851    1.000
    N494     N        0.02122    0.33007    0.37830    1.000
    Si495    Si       0.01470    0.37311    0.37407    1.000
    Si496    Si       0.09090    0.37128    0.39537    1.000
    N497     N        0.11071    0.36317    0.35628    1.000
    N498     N        0.99643    0.27405    0.34928    1.000
    Si499    Si       0.21814    0.33802    0.39301    1.000
    N500     N        0.12018    0.28490    0.40438    1.000
    N501     N        0.22327    0.32778    0.35121    1.000
    N502     N        0.18606    0.38113    0.34933    1.000
    N503     N        0.05574    0.38626    0.36689    1.000
    Si504    Si       0.08052    0.49150    0.35998    1.000
    Si505    Si       0.06660    0.42713    0.37293    1.000
    N506     N        0.10279    0.48598    0.39696    1.000
    N507     N        0.04384    0.44962    0.40300    1.000
    N508     N        0.09491    0.41314    0.40639    1.000
    N509     N        0.15083    0.38342    0.40454    1.000
    N510     N        0.23918    0.50170    0.38576    1.000
    N511     N        0.22425    0.43331    0.38958    1.000
    Si512    Si       0.20840    0.47415    0.39638    1.000
    Si513    Si       0.21940    0.41019    0.35291    1.000
    N514     N        0.17062    0.47711    0.37491    1.000
    Si515    Si       0.14637    0.38899    0.36067    1.000
    N516     N        0.01278    0.32395    0.44250    1.000
    N517     N        0.07502    0.34415    0.42433    1.000
    Si518    Si       0.00246    0.36663    0.44564    1.000
    Si519    Si       0.99372    0.29026    0.46061    1.000
    Si520    Si       0.04424    0.31469    0.41424    1.000
    N521     N        0.05028    0.27142    0.41410    1.000
    Si522    Si       0.07821    0.36067    0.46437    1.000
    Si523    Si       0.15985    0.28977    0.42094    1.000
    Si524    Si       0.18213    0.36661    0.43440    1.000
    N525     N        0.22091    0.37393    0.41701    1.000
    N526     N        0.15408    0.28524    0.46340    1.000
    N527     N        0.18168    0.32561    0.41327    1.000
    N528     N        0.11326    0.38498    0.46495    1.000
    Si529    Si       0.08801    0.45508    0.42291    1.000
    Si530    Si       0.01953    0.46607    0.43501    1.000
    N531     N        0.07121    0.46043    0.46148    1.000
    N532     N        0.03416    0.50717    0.43925    1.000
    N533     N        0.99659    0.39048    0.40967    1.000
    Si534    Si       0.14470    0.49006    0.41005    1.000
    Si535    Si       0.17065    0.45640    0.46319    1.000
    N536     N        0.17184    0.41158    0.46097    1.000
    N537     N        0.18905    0.48806    0.43409    1.000
    Si538    Si       0.13148    0.41076    0.43374    1.000
    N539     N        0.13279    0.45436    0.43900    1.000
    N540     N        0.07515    0.33118    0.49699    1.000
    N541     N        0.00191    0.32644    0.51124    1.000
    Si542    Si       0.03592    0.35357    0.51396    1.000
    N543     N        0.02165    0.26788    0.48556    1.000
    N544     N        0.03680    0.37774    0.47461    1.000
    Si545    Si       0.01038    0.28355    0.52500    1.000
    N546     N        0.11260    0.27225    0.52448    1.000
    N547     N        0.21866    0.29283    0.48418    1.000
    Si548    Si       0.17926    0.31048    0.48828    1.000
    N549     N        0.17144    0.35094    0.47553    1.000
    Si550    Si       0.06330    0.50339    0.47327    1.000
    Si551    Si       0.02600    0.41601    0.49863    1.000
    Si552    Si       0.09574    0.44850    0.49819    1.000
    N553     N        0.09795    0.48990    0.51419    1.000
    N554     N        0.05996    0.43211    0.51811    1.000
    N555     N        0.00694    0.43857    0.46780    1.000
    Si556    Si       0.20214    0.42176    0.51277    1.000
    Si557    Si       0.14946    0.38582    0.49188    1.000
    N558     N        0.12934    0.42456    0.51175    1.000
    N559     N        0.21392    0.45660    0.48486    1.000
    Si560    Si       0.20994    0.50012    0.47434    1.000
    N561     N        0.16213    0.48851    0.49305    1.000
    N562     N        0.05612    0.35237    0.55386    1.000
    N563     N        0.04774    0.28631    0.54509    1.000
    N564     N        0.10845    0.31534    0.57108    1.000
    Si565    Si       0.08226    0.30552    0.53168    1.000
    Si566    Si       0.02616    0.37865    0.57229    1.000
    N567     N        0.12124    0.38200    0.57459    1.000
    Si568    Si       0.14309    0.29295    0.55273    1.000
    Si569    Si       0.19399    0.35088    0.54412    1.000
    N570     N        0.17111    0.31615    0.53078    1.000
    N571     N        0.23721    0.33797    0.53944    1.000
    N572     N        0.00999    0.38923    0.53196    1.000
    Si573    Si       0.06539    0.44454    0.56036    1.000
    N574     N        0.04622    0.48375    0.56838    1.000
    Si575    Si       0.01720    0.49103    0.53702    1.000
    N576     N        0.10804    0.44427    0.57005    1.000
    N577     N        0.99606    0.45481    0.52670    1.000
    Si578    Si       0.18471    0.49177    0.53350    1.000
    N579     N        0.19428    0.45057    0.54635    1.000
    Si580    Si       0.14099    0.41644    0.55386    1.000
    N581     N        0.17665    0.39078    0.52877    1.000
    N582     N        0.06480    0.30107    0.61595    1.000
    N583     N        0.06544    0.36578    0.61761    1.000
    Si584    Si       0.10817    0.28054    0.60598    1.000
    N585     N        0.99748    0.30501    0.59376    1.000
    Si586    Si       0.03599    0.28498    0.58829    1.000
    Si587    Si       0.08947    0.35371    0.58293    1.000
    Si588    Si       0.22783    0.37070    0.61046    1.000
    N589     N        0.15024    0.37294    0.64150    1.000
    N590     N        0.15092    0.26975    0.58836    1.000
    Si591    Si       0.15437    0.38100    0.59932    1.000
    N592     N        0.19154    0.36187    0.58769    1.000
    N593     N        0.23674    0.27533    0.63499    1.000
    N594     N        0.04558    0.41570    0.58509    1.000
    N595     N        0.99674    0.48024    0.62299    1.000
    Si596    Si       0.05964    0.40768    0.62491    1.000
    Si597    Si       0.03195    0.49534    0.60630    1.000
    N598     N        0.10106    0.41626    0.63759    1.000
    N599     N        0.06129    0.48358    0.63801    1.000
    N600     N        0.16165    0.42407    0.59627    1.000
    Si601    Si       0.16510    0.50450    0.60926    1.000
    N602     N        0.12845    0.48483    0.62571    1.000
    Si603    Si       0.12338    0.44395    0.61224    1.000
    Si604    Si       0.19926    0.44024    0.58738    1.000
    N605     N        0.20218    0.48165    0.60870    1.000
    N606     N        0.22965    0.41350    0.60467    1.000
    N607     N        0.09853    0.34046    0.66403    1.000
    N608     N        0.05085    0.30236    0.68356    1.000
    N609     N        0.01311    0.34423    0.65428    1.000
    Si610    Si       0.00875    0.31260    0.68898    1.000
    Si611    Si       0.05862    0.32968    0.64667    1.000
    N612     N        0.11502    0.27276    0.65138    1.000
    Si613    Si       0.11256    0.38297    0.66189    1.000
    Si614    Si       0.18181    0.36199    0.66835    1.000
    N615     N        0.16822    0.32453    0.68351    1.000
    Si616    Si       0.12656    0.30921    0.67616    1.000
    N617     N        0.22043    0.35133    0.65033    1.000
    Si618    Si       0.00363    0.38682    0.66510    1.000
    N619     N        0.03289    0.41745    0.65846    1.000
    Si620    Si       0.04296    0.45796    0.67193    1.000
    N621     N        0.01282    0.48238    0.68961    1.000
    Si622    Si       0.09454    0.50932    0.64470    1.000
    Si623    Si       0.23149    0.48945    0.64280    1.000
    N624     N        0.18462    0.40016    0.68876    1.000
    Si625    Si       0.22180    0.42820    0.68912    1.000
    N626     N        0.24252    0.45103    0.65847    1.000
    N627     N        0.11988    0.39668    0.70134    1.000
    Si628    Si       0.07480    0.28774    0.71596    1.000
    N629     N        0.05936    0.30248    0.75303    1.000
    N630     N        0.99792    0.32091    0.72940    1.000
    N631     N        0.99022    0.37874    0.70578    1.000
    N632     N        0.11588    0.30041    0.71656    1.000
    Si633    Si       0.19615    0.31070    0.71572    1.000
    N634     N        0.17523    0.30580    0.75351    1.000
    N635     N        0.23023    0.33686    0.71437    1.000
    N636     N        0.20940    0.26901    0.70968    1.000
    Si637    Si       0.13094    0.30515    0.75618    1.000
    N638     N        0.05233    0.39089    0.72032    1.000
    Si639    Si       0.00754    0.48083    0.73227    1.000
    Si640    Si       0.01464    0.39513    0.73967    1.000
    Si641    Si       0.08588    0.41549    0.72163    1.000
    N642     N        0.00036    0.43570    0.74485    1.000
    Si643    Si       0.10574    0.48350    0.71276    1.000
    N644     N        0.10685    0.49312    0.75583    1.000
    N645     N        0.09969    0.42148    0.76106    1.000
    N646     N        0.07429    0.45401    0.70436    1.000
    N647     N        0.16378    0.40746    0.75318    1.000
    Si648    Si       0.15511    0.42189    0.71184    1.000
    N649     N        0.20675    0.45346    0.72073    1.000
    N650     N        0.14578    0.46446    0.70351    1.000
    Si651    Si       0.18303    0.48781    0.70678    1.000
    Si652    Si       0.19938    0.43227    0.76099    1.000
    N653     N        0.01086    0.29773    0.80009    1.000
    Si654    Si       0.03747    0.37479    0.81241    1.000
    N655     N        0.01932    0.36644    0.77352    1.000
    Si656    Si       0.10562    0.34448    0.81538    1.000
    N657     N        0.06223    0.33848    0.81632    1.000
    Si658    Si       0.02323    0.32106    0.76514    1.000
    Si659    Si       0.98777    0.26091    0.80867    1.000
    N660     N        0.11650    0.27099    0.78010    1.000
    N661     N        0.11983    0.34652    0.77312    1.000
    Si662    Si       0.19869    0.28348    0.78009    1.000
    N663     N        0.12390    0.38382    0.81828    1.000
    Si664    Si       0.09102    0.45948    0.77996    1.000
    N665     N        0.05153    0.46925    0.79808    1.000
    Si666    Si       0.02315    0.50349    0.79719    1.000
    N667     N        0.11326    0.45448    0.81495    1.000
    N668     N        0.19483    0.46259    0.79068    1.000
    N669     N        0.23708    0.41275    0.77104    1.000
    Si670    Si       0.13082    0.39100    0.77403    1.000
    N671     N        0.01086    0.36918    0.84656    1.000
    N672     N        0.02302    0.30288    0.86370    1.000
    Si673    Si       0.04634    0.29904    0.82729    1.000
    N674     N        0.06771    0.26208    0.82931    1.000
    Si675    Si       0.03120    0.34463    0.87679    1.000
    Si676    Si       0.99948    0.27034    0.87848    1.000
    Si677    Si       0.11208    0.26665    0.82360    1.000
    N678     N        0.11497    0.30924    0.83894    1.000
    Si679    Si       0.20176    0.30065    0.86164    1.000
    N680     N        0.23368    0.32974    0.85012    1.000
    N681     N        0.18886    0.28815    0.82222    1.000
    N682     N        0.13642    0.25806    0.86241    1.000
    N683     N        0.06320    0.40859    0.82709    1.000
    N684     N        0.99704    0.43429    0.82622    1.000
    N685     N        0.10752    0.50188    0.85526    1.000
    N686     N        0.05151    0.46742    0.86666    1.000
    Si687    Si       0.10433    0.41890    0.83812    1.000
    Si688    Si       0.03840    0.44473    0.83149    1.000
    N689     N        0.11146    0.42660    0.88025    1.000
    Si690    Si       0.13757    0.48836    0.82701    1.000
    Si691    Si       0.12501    0.46695    0.87811    1.000
    N692     N        0.22743    0.42660    0.83945    1.000
    Si693    Si       0.19929    0.45834    0.83521    1.000
    N694     N        0.16227    0.46749    0.85425    1.000
    N695     N        0.22721    0.48633    0.85304    1.000
    Si696    Si       0.10089    0.34018    0.91874    1.000
    N697     N        0.00648    0.34912    0.91256    1.000
    N698     N        0.07208    0.34828    0.88887    1.000
    Si699    Si       0.99684    0.31592    0.93720    1.000
    N700     N        0.11578    0.29955    0.91672    1.000
    Si701    Si       0.17045    0.35051    0.91167    1.000
    N702     N        0.13454    0.36945    0.91866    1.000
    N703     N        0.20277    0.37726    0.89616    1.000
    N704     N        0.16889    0.31953    0.88253    1.000
    N705     N        0.21636    0.26613    0.87977    1.000
    Si706    Si       0.13222    0.29764    0.87645    1.000
    Si707    Si       0.08550    0.50429    0.92475    1.000
    N708     N        0.99475    0.46932    0.90271    1.000
    N709     N        0.03014    0.41308    0.90808    1.000
    Si710    Si       0.03634    0.45537    0.90488    1.000
    Si711    Si       0.99712    0.39013    0.91595    1.000
    N712     N        0.05900    0.47129    0.93832    1.000
    Si713    Si       0.12682    0.41125    0.91894    1.000
    N714     N        0.23587    0.44044    0.91149    1.000
    N715     N        0.19550    0.49977    0.92828    1.000
    N716     N        0.12482    0.48351    0.91706    1.000
    N717     N        0.16514    0.43195    0.92685    1.000
    Si718    Si       0.20471    0.41220    0.92208    1.000
    Si719    Si       0.16186    0.47395    0.93797    1.000
    N720     N        0.08035    0.34166    0.95830    1.000
    N721     N        0.02736    0.29151    0.95602    1.000
    Si722    Si       0.06197    0.30713    0.97809    1.000
    N723     N        0.09163    0.27547    0.98432    1.000
    Si724    Si       0.10086    0.37602    0.97850    1.000
    Si725    Si       0.16805    0.33175    0.98254    1.000
    N726     N        0.14929    0.29422    0.98469    1.000
    Si727    Si       0.12504    0.27564    0.95248    1.000
    N728     N        0.19066    0.33725    0.94617    1.000
    Si729    Si       0.23218    0.35180    0.95114    1.000
    N730     N        0.14057    0.36484    0.99114    1.000
    Si731    Si       0.07046    0.44576    0.97192    1.000
    N732     N        0.10021    0.41504    0.95485    1.000
    N733     N        0.03190    0.43341    0.98865    1.000
    Si734    Si       0.98972    0.43565    0.97811    1.000
    N735     N        0.22229    0.39290    0.95713    1.000
    Si736    Si       0.11498    0.50405    0.99030    1.000
    N737     N        0.21522    0.46161    0.97762    1.000
    N738     N        0.14928    0.48266    0.97808    1.000
    Si739    Si       0.22105    0.42009    0.98977    1.000
    N740     N        0.02341    0.54529    0.01494    1.000
    Si741    Si       0.03614    0.58673    0.01160    1.000
    Si742    Si       0.10482    0.58417    0.03511    1.000
    N743     N        0.02616    0.61082    0.04588    1.000
    N744     N        0.07635    0.58662    0.99989    1.000
    Si745    Si       0.04320    0.52808    0.04945    1.000
    Si746    Si       0.17409    0.61971    0.04494    1.000
    Si747    Si       0.16651    0.54744    0.02716    1.000
    N748     N        0.14204    0.61002    0.01433    1.000
    N749     N        0.12717    0.54633    0.00813    1.000
    N750     N        0.19284    0.52597    0.00030    1.000
    N751     N        0.18765    0.57867    0.04866    1.000
    Si752    Si       0.05981    0.73535    0.02807    1.000
    N753     N        0.02017    0.72171    0.00975    1.000
    N754     N        0.08866    0.71191    0.99884    1.000
    Si755    Si       0.99888    0.64844    0.05292    1.000
    N756     N        0.99079    0.66006    0.01330    1.000
    N757     N        0.20250    0.74178    0.01909    1.000
    N758     N        0.21193    0.63806    0.03181    1.000
    N759     N        0.14910    0.68914    0.03247    1.000
    Si760    Si       0.13301    0.71514    0.00308    1.000
    Si761    Si       0.23209    0.71123    0.01616    1.000
    N762     N        0.02064    0.53534    0.08550    1.000
    N763     N        0.09552    0.62268    0.06296    1.000
    N764     N        0.08212    0.55230    0.05904    1.000
    Si765    Si       0.05410    0.63064    0.07363    1.000
    N766     N        0.05221    0.61875    0.11674    1.000
    Si767    Si       0.11385    0.53733    0.08668    1.000
    Si768    Si       0.12465    0.61950    0.09593    1.000
    N769     N        0.15851    0.52834    0.06670    1.000
    N770     N        0.13382    0.57780    0.08959    1.000
    Si771    Si       0.17645    0.56353    0.09264    1.000
    N772     N        0.06263    0.73414    0.07147    1.000
    N773     N        0.03213    0.66926    0.07027    1.000
    Si774    Si       0.04056    0.70492    0.09389    1.000
    N775     N        0.00945    0.73180    0.11077    1.000
    Si776    Si       0.19302    0.75274    0.05963    1.000
    N777     N        0.13467    0.70264    0.10432    1.000
    Si778    Si       0.15900    0.68460    0.07312    1.000
    N779     N        0.19153    0.71279    0.08283    1.000
    N780     N        0.22694    0.65590    0.09587    1.000
    N781     N        0.16025    0.64092    0.08101    1.000
    Si782    Si       0.23170    0.69873    0.09139    1.000
    Si783    Si       0.16334    0.73653    0.11150    1.000
    Si784    Si       0.19095    0.63895    0.11239    1.000
    Si785    Si       0.01585    0.60514    0.13698    1.000
    N786     N        0.05432    0.52163    0.15158    1.000
    Si787    Si       0.02655    0.50840    0.11916    1.000
    N788     N        0.03108    0.58810    0.17449    1.000
    Si789    Si       0.23929    0.52877    0.12259    1.000
    N790     N        0.12450    0.52456    0.12900    1.000
    Si791    Si       0.20763    0.57802    0.15700    1.000
    Si792    Si       0.16180    0.52170    0.15035    1.000
    N793     N        0.19419    0.53285    0.12005    1.000
    N794     N        0.19581    0.59554    0.11679    1.000
    N795     N        0.16632    0.56369    0.17109    1.000
    Si796    Si       0.10261    0.71104    0.13238    1.000
    N797     N        0.06733    0.68840    0.12525    1.000
    Si798    Si       0.07263    0.64893    0.14105    1.000
    N799     N        0.08933    0.75235    0.13226    1.000
    N800     N        0.99364    0.64267    0.13491    1.000
    N801     N        0.18192    0.65149    0.15236    1.000
    N802     N        0.16668    0.74784    0.15386    1.000
    Si803    Si       0.14081    0.65869    0.16418    1.000
    N804     N        0.11485    0.64023    0.13323    1.000
    N805     N        0.12229    0.69620    0.16933    1.000
    Si806    Si       0.03489    0.54577    0.18233    1.000
    N807     N        0.04979    0.53334    0.22249    1.000
    Si808    Si       0.03015    0.62409    0.20073    1.000
    N809     N        0.99530    0.53197    0.19311    1.000
    Si810    Si       0.09338    0.52636    0.22295    1.000
    N811     N        0.10867    0.56761    0.22290    1.000
    N812     N        0.00017    0.60524    0.23416    1.000
    N813     N        0.22566    0.60630    0.18797    1.000
    N814     N        0.21803    0.53434    0.21320    1.000
    Si815    Si       0.14176    0.58476    0.20118    1.000
    N816     N        0.99816    0.65550    0.19878    1.000
    Si817    Si       0.09112    0.64801    0.21383    1.000
    N818     N        0.06239    0.64635    0.18192    1.000
    N819     N        0.13235    0.63404    0.19909    1.000
    N820     N        0.22692    0.74767    0.21708    1.000
    N821     N        0.15900    0.72644    0.22824    1.000
    N822     N        0.19260    0.65695    0.22898    1.000
    Si823    Si       0.14095    0.73272    0.18642    1.000
    Si824    Si       0.20796    0.64608    0.18807    1.000
    Si825    Si       0.09819    0.59386    0.25602    1.000
    N826     N        0.06473    0.62038    0.23740    1.000
    Si827    Si       0.03099    0.62693    0.26089    1.000
    N828     N        0.10142    0.51130    0.26307    1.000
    Si829    Si       0.00976    0.52469    0.23585    1.000
    N830     N        0.08470    0.57407    0.29224    1.000
    N831     N        0.12617    0.62671    0.26592    1.000
    N832     N        0.20104    0.54285    0.27394    1.000
    Si833    Si       0.20854    0.56977    0.23792    1.000
    N834     N        0.17190    0.59193    0.23118    1.000
    N835     N        0.23992    0.59458    0.25215    1.000
    Si836    Si       0.06208    0.73701    0.27738    1.000
    N837     N        0.03509    0.73631    0.24244    1.000
    N838     N        0.01241    0.66724    0.26294    1.000
    N839     N        0.10398    0.74553    0.26270    1.000
    Si840    Si       0.99182    0.74061    0.24931    1.000
    N841     N        0.09763    0.68415    0.23466    1.000
    N842     N        0.99106    0.72640    0.29003    1.000
    Si843    Si       0.15862    0.63200    0.23877    1.000
    Si844    Si       0.12614    0.70863    0.25349    1.000
    N845     N        0.21170    0.71591    0.27660    1.000
    Si846    Si       0.21864    0.67656    0.26132    1.000
    Si847    Si       0.19523    0.74223    0.24666    1.000
    Si848    Si       0.06480    0.60307    0.32000    1.000
    N849     N        0.10213    0.51945    0.33543    1.000
    Si850    Si       0.01872    0.51791    0.33234    1.000
    Si851    Si       0.08368    0.53065    0.29603    1.000
    N852     N        0.99688    0.55577    0.33386    1.000
    N853     N        0.02619    0.60683    0.29893    1.000
    N854     N        0.04135    0.51465    0.29643    1.000
    N855     N        0.22836    0.51772    0.32289    1.000
    Si856    Si       0.18714    0.52512    0.31174    1.000
    N857     N        0.16838    0.55385    0.33761    1.000
    N858     N        0.15863    0.63337    0.32784    1.000
    Si859    Si       0.15787    0.59639    0.35068    1.000
    N860     N        0.08492    0.64223    0.31795    1.000
    N861     N        0.05574    0.70313    0.30299    1.000
    Si862    Si       0.07046    0.67804    0.33559    1.000
    Si863    Si       0.01238    0.69101    0.30046    1.000
    Si864    Si       0.19596    0.65575    0.33212    1.000
    N865     N        0.13435    0.75019    0.34324    1.000
    N866     N        0.18162    0.69692    0.34026    1.000
    Si867    Si       0.13973    0.70790    0.33402    1.000
    N868     N        0.21920    0.64828    0.29597    1.000
    N869     N        0.13467    0.69033    0.29465    1.000
    Si870    Si       0.21834    0.75283    0.30785    1.000
    Si871    Si       0.12610    0.64980    0.30251    1.000
    Si872    Si       0.08578    0.59684    0.38471    1.000
    Si873    Si       0.00729    0.58201    0.36732    1.000
    N874     N        0.05023    0.59461    0.35921    1.000
    N875     N        0.04378    0.51477    0.36674    1.000
    N876     N        0.00945    0.56304    0.40489    1.000
    N877     N        0.09172    0.63679    0.40014    1.000
    N878     N        0.11569    0.58505    0.35670    1.000
    N879     N        0.17162    0.60461    0.39019    1.000
    N880     N        0.14462    0.53536    0.40143    1.000
    Si881    Si       0.12992    0.54292    0.35797    1.000
    N882     N        0.99359    0.73083    0.35893    1.000
    N883     N        0.10713    0.69176    0.35787    1.000
    Si884    Si       0.10295    0.74643    0.37480    1.000
    N885     N        0.03420    0.67736    0.36144    1.000
    N886     N        0.06104    0.74544    0.36147    1.000
    Si887    Si       0.03103    0.71924    0.37588    1.000
    Si888    Si       0.11156    0.67875    0.39984    1.000
    Si889    Si       0.99315    0.66100    0.36179    1.000
    Si890    Si       0.21433    0.69953    0.36806    1.000
    N891     N        0.20173    0.70994    0.40721    1.000
    Si892    Si       0.18860    0.64512    0.40391    1.000
    N893     N        0.21770    0.65397    0.37065    1.000
    N894     N        0.10244    0.52463    0.46342    1.000
    N895     N        0.07930    0.55985    0.40837    1.000
    Si896    Si       0.04363    0.53449    0.40563    1.000
    Si897    Si       0.11349    0.55014    0.43231    1.000
    N898     N        0.14355    0.57773    0.44690    1.000
    N899     N        0.21354    0.56135    0.42725    1.000
    Si900    Si       0.22242    0.59509    0.45486    1.000
    Si901    Si       0.17204    0.56910    0.41485    1.000
    N902     N        0.02303    0.64359    0.43160    1.000
    N903     N        0.07728    0.74673    0.45955    1.000
    Si904    Si       0.06526    0.64968    0.43134    1.000
    N905     N        0.07536    0.69094    0.42228    1.000
    N906     N        0.01964    0.73413    0.41554    1.000
    Si907    Si       0.04850    0.71642    0.44452    1.000
    N908     N        0.12687    0.72990    0.41322    1.000
    Si909    Si       0.22327    0.73920    0.43173    1.000
    Si910    Si       0.16298    0.71161    0.43049    1.000
    N911     N        0.21021    0.63705    0.44401    1.000
    N912     N        0.15318    0.66902    0.41113    1.000
    N913     N        0.18201    0.75290    0.44627    1.000
    Si914    Si       0.05578    0.61301    0.49644    1.000
    Si915    Si       0.01518    0.55208    0.49669    1.000
    N916     N        0.04828    0.57356    0.47987    1.000
    N917     N        0.03360    0.51460    0.50371    1.000
    N918     N        0.14480    0.55458    0.51332    1.000
    N919     N        0.20034    0.58587    0.48969    1.000
    Si920    Si       0.15689    0.58615    0.48692    1.000
    N921     N        0.21267    0.52094    0.51331    1.000
    Si922    Si       0.12795    0.51753    0.49732    1.000
    N923     N        0.14723    0.62931    0.48761    1.000
    Si924    Si       0.21845    0.56281    0.52315    1.000
    N925     N        0.01656    0.63155    0.50025    1.000
    N926     N        0.08064    0.63820    0.46989    1.000
    N927     N        0.03052    0.69460    0.47810    1.000
    Si928    Si       0.03359    0.70200    0.52027    1.000
    Si929    Si       0.00603    0.65880    0.46847    1.000
    Si930    Si       0.11032    0.64326    0.50080    1.000
    N931     N        0.05264    0.73991    0.52448    1.000
    N932     N        0.11577    0.68034    0.52053    1.000
    Si933    Si       0.17849    0.65722    0.47519    1.000
    N934     N        0.20707    0.66428    0.50523    1.000
    N935     N        0.15763    0.69536    0.47247    1.000
    Si936    Si       0.14256    0.71195    0.50959    1.000
    N937     N        0.13659    0.75585    0.51200    1.000
    N938     N        0.23656    0.72554    0.52472    1.000
    Si939    Si       0.10308    0.60642    0.56439    1.000
    N940     N        0.00839    0.57339    0.53599    1.000
    Si941    Si       0.00055    0.55204    0.57284    1.000
    N942     N        0.00117    0.63127    0.57182    1.000
    Si943    Si       0.99291    0.61372    0.53210    1.000
    N944     N        0.08611    0.61314    0.52648    1.000
    Si945    Si       0.15829    0.55260    0.55339    1.000
    N946     N        0.19950    0.56521    0.56154    1.000
    N947     N        0.13409    0.57968    0.57736    1.000
    N948     N        0.16265    0.51096    0.56531    1.000
    N949     N        0.99563    0.69536    0.54019    1.000
    Si950    Si       0.07075    0.74274    0.56325    1.000
    N951     N        0.05472    0.67938    0.55136    1.000
    Si952    Si       0.09697    0.67931    0.55899    1.000
    N953     N        0.10707    0.72085    0.57447    1.000
    Si954    Si       0.02289    0.68977    0.58187    1.000
    Si955    Si       0.14845    0.73041    0.57993    1.000
    N956     N        0.16884    0.71070    0.54583    1.000
    N957     N        0.11762    0.64620    0.58006    1.000
    N958     N        0.22407    0.66912    0.56287    1.000
    Si959    Si       0.20617    0.69648    0.53507    1.000
    Si960    Si       0.05120    0.57006    0.62699    1.000
    N961     N        0.09235    0.55009    0.63196    1.000
    N962     N        0.02962    0.53988    0.60363    1.000
    N963     N        0.02199    0.60392    0.62682    1.000
    Si964    Si       0.04047    0.62893    0.59311    1.000
    N965     N        0.06962    0.59644    0.59294    1.000
    Si966    Si       0.22717    0.56680    0.59664    1.000
    Si967    Si       0.12903    0.57024    0.61883    1.000
    N968     N        0.16084    0.54207    0.63015    1.000
    N969     N        0.22659    0.56050    0.63858    1.000
    N970     N        0.13588    0.60743    0.64134    1.000
    N971     N        0.24216    0.60797    0.59548    1.000
    N972     N        0.04366    0.66713    0.61384    1.000
    N973     N        0.03907    0.72996    0.58966    1.000
    Si974    Si       0.02541    0.75366    0.62170    1.000
    Si975    Si       0.17681    0.68691    0.64085    1.000
    Si976    Si       0.22638    0.64880    0.60154    1.000
    Si977    Si       0.14300    0.64298    0.61583    1.000
    N978     N        0.17265    0.72111    0.61450    1.000
    Si979    Si       0.20522    0.75036    0.62232    1.000
    N980     N        0.18639    0.65183    0.61731    1.000
    N981     N        0.22796    0.75624    0.58646    1.000
    N982     N        0.09623    0.51721    0.68843    1.000
    N983     N        0.03922    0.55994    0.67150    1.000
    Si984    Si       0.99639    0.56550    0.68230    1.000
    Si985    Si       0.07460    0.55575    0.69684    1.000
    N986     N        0.10237    0.58990    0.69733    1.000
    Si987    Si       0.14126    0.60331    0.68420    1.000
    Si988    Si       0.19156    0.54715    0.66063    1.000
    N989     N        0.17235    0.57086    0.69391    1.000
    N990     N        0.20236    0.50657    0.67375    1.000
    N991     N        0.07953    0.65007    0.67868    1.000
    Si992    Si       0.05008    0.67340    0.65584    1.000
    N993     N        0.07611    0.70810    0.66284    1.000
    Si994    Si       0.00589    0.71300    0.68777    1.000
    Si995    Si       0.06663    0.74689    0.68200    1.000
    N996     N        0.01305    0.67142    0.67945    1.000
    N997     N        0.99977    0.73218    0.64897    1.000
    Si998    Si       0.10884    0.68041    0.67606    1.000
    N999     N        0.23052    0.74534    0.65751    1.000
    N1000    N        0.16898    0.75120    0.68824    1.000
    N1001    N        0.19460    0.69099    0.68086    1.000
    Si1002   Si       0.20627    0.72926    0.69065    1.000
    N1003    N        0.13515    0.67532    0.64270    1.000
    Si1004   Si       0.02394    0.55781    0.74966    1.000
    N1005    N        0.06649    0.56054    0.73937    1.000
    Si1006   Si       0.07570    0.62274    0.71092    1.000
    N1007    N        0.03419    0.62093    0.71950    1.000
    N1008    N        0.02535    0.51222    0.75631    1.000
    Si1009   Si       0.09404    0.58698    0.75975    1.000
    N1010    N        0.09708    0.63324    0.74914    1.000
    N1011    N        0.17914    0.51607    0.74094    1.000
    Si1012   Si       0.19300    0.55894    0.73097    1.000
    N1013    N        0.23439    0.56529    0.71927    1.000
    Si1014   Si       0.13832    0.52554    0.76015    1.000
    Si1015   Si       0.02778    0.73577    0.75286    1.000
    N1016    N        0.03372    0.73686    0.70971    1.000
    Si1017   Si       0.99798    0.63697    0.70301    1.000
    N1018    N        0.14708    0.64183    0.70452    1.000
    N1019    N        0.21109    0.63410    0.72789    1.000
    Si1020   Si       0.13490    0.74013    0.71346    1.000
    N1021    N        0.21952    0.73929    0.73103    1.000
    N1022    N        0.14477    0.74796    0.75486    1.000
    N1023    N        0.17423    0.67917    0.75065    1.000
    Si1024   Si       0.13145    0.66615    0.74430    1.000
    Si1025   Si       0.18407    0.66368    0.71125    1.000
    N1026    N        0.12245    0.69894    0.71458    1.000
    Si1027   Si       0.18901    0.75701    0.75883    1.000
    N1028    N        0.01531    0.58624    0.78031    1.000
    N1029    N        0.08384    0.59344    0.80273    1.000
    Si1030   Si       0.04287    0.60654    0.80758    1.000
    Si1031   Si       0.15953    0.58473    0.78990    1.000
    N1032    N        0.19659    0.57513    0.77116    1.000
    Si1033   Si       0.23082    0.56686    0.79913    1.000
    N1034    N        0.22772    0.52303    0.79612    1.000
    N1035    N        0.15440    0.51625    0.79878    1.000
    N1036    N        0.15771    0.62770    0.78099    1.000
    Si1037   Si       0.19353    0.50553    0.78074    1.000
    N1038    N        0.13129    0.56679    0.76170    1.000
    N1039    N        0.04644    0.64865    0.79665    1.000
    Si1040   Si       0.01199    0.67550    0.80197    1.000
    Si1041   Si       0.09015    0.64838    0.79088    1.000
    Si1042   Si       0.10681    0.73376    0.77353    1.000
    N1043    N        0.00749    0.70008    0.76591    1.000
    N1044    N        0.06848    0.75398    0.76608    1.000
    N1045    N        0.10839    0.68695    0.78074    1.000
    N1046    N        0.11584    0.73951    0.81434    1.000
    N1047    N        0.20466    0.74404    0.79775    1.000
    N1048    N        0.23213    0.64510    0.79576    1.000
    Si1049   Si       0.19610    0.64695    0.77139    1.000
    N1050    N        0.03141    0.59816    0.84764    1.000
    Si1051   Si       0.00791    0.55861    0.84169    1.000
    N1052    N        0.03598    0.52609    0.83142    1.000
    Si1053   Si       0.10977    0.60091    0.83645    1.000
    N1054    N        0.09701    0.60164    0.87872    1.000
    Si1055   Si       0.06385    0.50913    0.85889    1.000
    N1056    N        0.21405    0.59117    0.83388    1.000
    Si1057   Si       0.18249    0.57874    0.85822    1.000
    N1058    N        0.14743    0.58057    0.83213    1.000
    Si1059   Si       0.23442    0.62999    0.83678    1.000
    N1060    N        0.19245    0.54012    0.87520    1.000
    N1061    N        0.08630    0.70133    0.85285    1.000
    N1062    N        0.01829    0.70088    0.83672    1.000
    Si1063   Si       0.05039    0.72334    0.85086    1.000
    Si1064   Si       0.09524    0.66096    0.87111    1.000
    N1065    N        0.10702    0.64482    0.83162    1.000
    Si1066   Si       0.17258    0.67055    0.87651    1.000
    N1067    N        0.21253    0.65962    0.86000    1.000
    N1068    N        0.15886    0.69769    0.84436    1.000
    N1069    N        0.22106    0.73149    0.86441    1.000
    Si1070   Si       0.11941    0.69716    0.82384    1.000
    Si1071   Si       0.18646    0.73405    0.83749    1.000
    N1072    N        0.02899    0.58913    0.91509    1.000
    N1073    N        0.06130    0.52699    0.89718    1.000
    Si1074   Si       0.02436    0.54669    0.90709    1.000
    Si1075   Si       0.05329    0.60935    0.88284    1.000
    Si1076   Si       0.99362    0.59776    0.93703    1.000
    N1077    N        0.99217    0.54580    0.88095    1.000
    Si1078   Si       0.19653    0.60436    0.92588    1.000
    Si1079   Si       0.13019    0.61290    0.90485    1.000
    N1080    N        0.17111    0.60473    0.89177    1.000
    Si1081   Si       0.21659    0.50797    0.88909    1.000
    N1082    N        0.23582    0.62164    0.91713    1.000
    N1083    N        0.99504    0.67344    0.89134    1.000
    N1084    N        0.10130    0.70878    0.92859    1.000
    N1085    N        0.05988    0.65166    0.89253    1.000
    Si1086   Si       0.07807    0.74257    0.91369    1.000
    Si1087   Si       0.03353    0.68258    0.90930    1.000
    N1088    N        0.03982    0.72569    0.89537    1.000
    Si1089   Si       0.00775    0.75452    0.90654    1.000
    N1090    N        0.18127    0.68833    0.91702    1.000
    Si1091   Si       0.13909    0.68647    0.93297    1.000
    N1092    N        0.13062    0.65753    0.89620    1.000
    N1093    N        0.09594    0.52806    0.95841    1.000
    N1094    N        0.00447    0.59143    0.98066    1.000
    Si1095   Si       0.99522    0.54694    0.98265    1.000
    N1096    N        0.00750    0.52870    0.94479    1.000
    Si1097   Si       0.10546    0.56802    0.97189    1.000
    Si1098   Si       0.20879    0.52907    0.95930    1.000
    N1099    N        0.12304    0.59701    0.94533    1.000
    Si1100   Si       0.14172    0.62524    0.97444    1.000
    N1101    N        0.18540    0.62527    0.96318    1.000
    N1102    N        0.21302    0.56742    0.94193    1.000
    Si1103   Si       0.02811    0.72596    0.96658    1.000
    Si1104   Si       0.08596    0.68734    0.96377    1.000
    N1105    N        0.04284    0.68826    0.95260    1.000
    N1106    N        0.99338    0.73645    0.94381    1.000
    N1107    N        0.05577    0.75528    0.94924    1.000
    Si1108   Si       0.21819    0.64006    0.98875    1.000
    Si1109   Si       0.18294    0.75614    0.98313    1.000
    N1110    N        0.22177    0.68326    0.98263    1.000
    Si1111   Si       0.19974    0.70560    0.95229    1.000
    N1112    N        0.12183    0.66142    0.96514    1.000
    N1113    N        0.16027    0.71770    0.96703    1.000
    N1114    N        0.21614    0.74515    0.95488    1.000
    N1115    N        0.06608    0.77594    0.01521    1.000
    Si1116   Si       0.08091    0.80793    0.04036    1.000
    Si1117   Si       0.05932    0.87702    0.04573    1.000
    N1118    N        0.11113    0.82693    0.01561    1.000
    Si1119   Si       0.12810    0.85849    0.04162    1.000
    N1120    N        0.14088    0.75913    0.01048    1.000
    N1121    N        0.04203    0.88493    0.00736    1.000
    Si1122   Si       0.00557    0.90877    0.02484    1.000
    N1123    N        0.01485    0.94891    0.01217    1.000
    Si1124   Si       0.07952    0.99914    0.01668    1.000
    N1125    N        0.07280    0.97255    0.05125    1.000
    Si1126   Si       0.03379    0.95444    0.05128    1.000
    Si1127   Si       0.19530    0.98117    0.01112    1.000
    N1128    N        0.20203    0.89649    0.04696    1.000
    Si1129   Si       0.16275    0.91560    0.04008    1.000
    N1130    N        0.13874    0.89169    0.01554    1.000
    Si1131   Si       0.23260    0.91104    0.01751    1.000
    N1132    N        0.23005    0.95400    0.00460    1.000
    N1133    N        0.16046    0.95652    0.02707    1.000
    Si1134   Si       0.02732    0.82984    0.09010    1.000
    N1135    N        0.09975    0.79740    0.07674    1.000
    Si1136   Si       0.07290    0.76904    0.09618    1.000
    N1137    N        0.04000    0.79330    0.11154    1.000
    N1138    N        0.09726    0.87844    0.06592    1.000
    N1139    N        0.04877    0.83541    0.05280    1.000
    N1140    N        0.16110    0.76911    0.08498    1.000
    Si1141   Si       0.14136    0.80765    0.09012    1.000
    Si1142   Si       0.19790    0.85987    0.07297    1.000
    N1143    N        0.15916    0.84035    0.06705    1.000
    N1144    N        0.22719    0.77105    0.07779    1.000
    N1145    N        0.23854    0.84342    0.06725    1.000
    N1146    N        0.19842    0.87962    0.11349    1.000
    N1147    N        0.00834    0.98145    0.07533    1.000
    N1148    N        0.03687    0.91265    0.06437    1.000
    Si1149   Si       0.10656    0.90469    0.10023    1.000
    Si1150   Si       0.03574    0.90782    0.10713    1.000
    Si1151   Si       0.08734    0.00349    0.07731    1.000
    Si1152   Si       0.15079    0.96508    0.07197    1.000
    N1153    N        0.12464    0.98930    0.09546    1.000
    N1154    N        0.18978    0.98208    0.08332    1.000
    N1155    N        0.14520    0.92108    0.08233    1.000
    N1156    N        0.08786    0.82093    0.15534    1.000
    Si1157   Si       0.05303    0.84644    0.15634    1.000
    Si1158   Si       0.01444    0.76920    0.13683    1.000
    Si1159   Si       0.08192    0.77966    0.16379    1.000
    N1160    N        0.04030    0.86472    0.11715    1.000
    Si1161   Si       0.12608    0.84517    0.15441    1.000
    N1162    N        0.15257    0.81595    0.13439    1.000
    Si1163   Si       0.18117    0.78854    0.15525    1.000
    N1164    N        0.22718    0.78192    0.15230    1.000
    N1165    N        0.13015    0.88201    0.13205    1.000
    N1166    N        0.07388    0.92182    0.12313    1.000
    Si1167   Si       0.07343    0.92186    0.16612    1.000
    N1168    N        0.99948    0.92832    0.11972    1.000
    N1169    N        0.05329    0.99477    0.16873    1.000
    N1170    N        0.16996    0.94400    0.14445    1.000
    Si1171   Si       0.23377    0.88583    0.13686    1.000
    Si1172   Si       0.19551    0.97637    0.12736    1.000
    Si1173   Si       0.16462    0.90827    0.12113    1.000
    N1174    N        0.22786    0.91533    0.17012    1.000
    N1175    N        0.23829    0.96978    0.12769    1.000
    Si1176   Si       0.03502    0.77510    0.21827    1.000
    N1177    N        0.01767    0.84870    0.18093    1.000
    N1178    N        0.10987    0.76292    0.19267    1.000
    N1179    N        0.03972    0.77164    0.17319    1.000
    N1180    N        0.07196    0.87936    0.18261    1.000
    Si1181   Si       0.22712    0.78488    0.19789    1.000
    N1182    N        0.13774    0.85408    0.19606    1.000
    N1183    N        0.18743    0.80270    0.19683    1.000
    Si1184   Si       0.16187    0.83018    0.22114    1.000
    N1185    N        0.22891    0.87634    0.22735    1.000
    Si1186   Si       0.03242    0.88821    0.19737    1.000
    N1187    N        0.03737    0.93176    0.18753    1.000
    Si1188   Si       0.02437    0.97282    0.19188    1.000
    N1189    N        0.00952    0.99868    0.22423    1.000
    Si1190   Si       0.11126    0.88858    0.20562    1.000
    N1191    N        0.17365    0.92163    0.21315    1.000
    N1192    N        0.11115    0.92788    0.18501    1.000
    N1193    N        0.14837    0.98237    0.19952    1.000
    Si1194   Si       0.15203    0.94244    0.18394    1.000
    Si1195   Si       0.21674    0.91408    0.21134    1.000
    Si1196   Si       0.06567    0.81120    0.27872    1.000
    N1197    N        0.06762    0.79667    0.23656    1.000
    Si1198   Si       0.10417    0.87945    0.28447    1.000
    Si1199   Si       0.10547    0.77771    0.23489    1.000
    Si1200   Si       0.02920    0.87522    0.27846    1.000
    N1201    N        0.02936    0.83360    0.28745    1.000
    N1202    N        0.99315    0.78207    0.23218    1.000
    N1203    N        0.19852    0.77496    0.27610    1.000
    N1204    N        0.14007    0.80002    0.24614    1.000
    N1205    N        0.18467    0.84086    0.25692    1.000
    Si1206   Si       0.21202    0.87194    0.26904    1.000
    Si1207   Si       0.16934    0.80567    0.27637    1.000
    N1208    N        0.01834    0.88388    0.23777    1.000
    N1209    N        0.98580    0.94542    0.24729    1.000
    N1210    N        0.12149    0.89369    0.24735    1.000
    Si1211   Si       0.15601    0.92029    0.25306    1.000
    Si1212   Si       0.15549    0.99222    0.24243    1.000
    N1213    N        0.14282    0.95924    0.26760    1.000
    N1214    N        0.19631    0.00267    0.25020    1.000
    Si1215   Si       0.22596    0.97364    0.26494    1.000
    N1216    N        0.18841    0.90769    0.27901    1.000
    N1217    N        0.23768    0.94346    0.23451    1.000
    N1218    N        0.05896    0.77653    0.30052    1.000
    N1219    N        1.00000    0.78456    0.32287    1.000
    Si1220   Si       0.04154    0.77973    0.33933    1.000
    Si1221   Si       0.99208    0.82345    0.30892    1.000
    N1222    N        0.09873    0.83540    0.29245    1.000
    Si1223   Si       0.12950    0.83923    0.32400    1.000
    N1224    N        0.16014    0.81004    0.31926    1.000
    Si1225   Si       0.23240    0.86409    0.34512    1.000
    N1226    N        0.20348    0.76681    0.34718    1.000
    N1227    N        0.99557    0.89438    0.30164    1.000
    Si1228   Si       0.06203    0.92301    0.32363    1.000
    Si1229   Si       0.05184    0.99200    0.31262    1.000
    N1230    N        0.09953    0.94324    0.32437    1.000
    N1231    N        0.03252    0.95282    0.31130    1.000
    N1232    N        0.06414    0.89546    0.29091    1.000
    N1233    N        0.08879    0.99943    0.29064    1.000
    Si1234   Si       0.99760    0.93800    0.28887    1.000
    N1235    N        0.13120    0.88161    0.31799    1.000
    N1236    N        0.16543    0.94554    0.33282    1.000
    Si1237   Si       0.20096    0.92710    0.31634    1.000
    Si1238   Si       0.13466    0.91834    0.34006    1.000
    N1239    N        0.22765    0.95839    0.30586    1.000
    N1240    N        0.13353    0.99928    0.34063    1.000
    Si1241   Si       0.12333    0.97584    0.30352    1.000
    N1242    N        0.20785    0.00419    0.34953    1.000
    N1243    N        0.04709    0.81508    0.36406    1.000
    Si1244   Si       0.01184    0.83527    0.38028    1.000
    Si1245   Si       0.08301    0.82104    0.38761    1.000
    N1246    N        0.01304    0.87502    0.39883    1.000
    N1247    N        0.09543    0.78142    0.40028    1.000
    N1248    N        0.11728    0.83609    0.36477    1.000
    Si1249   Si       0.12189    0.86826    0.39560    1.000
    N1250    N        0.16935    0.79174    0.39346    1.000
    Si1251   Si       0.21137    0.79249    0.38215    1.000
    N1252    N        0.22679    0.83121    0.37260    1.000
    Si1253   Si       0.16217    0.78079    0.35068    1.000
    Si1254   Si       0.09942    0.00084    0.36977    1.000
    N1255    N        0.05853    0.90735    0.36313    1.000
    Si1256   Si       0.02554    0.99460    0.38330    1.000
    N1257    N        0.05910    0.99534    0.35614    1.000
    Si1258   Si       0.05133    0.89364    0.40276    1.000
    N1259    N        0.10593    0.97492    0.40370    1.000
    N1260    N        0.98765    0.98432    0.36335    1.000
    N1261    N        0.17451    0.96511    0.39779    1.000
    N1262    N        0.13416    0.90825    0.38192    1.000
    Si1263   Si       0.17216    0.98185    0.35697    1.000
    N1264    N        0.21324    0.90428    0.35293    1.000
    Si1265   Si       0.00202    0.76973    0.43320    1.000
    Si1266   Si       0.10924    0.76323    0.43755    1.000
    N1267    N        0.99675    0.80763    0.41015    1.000
    N1268    N        0.07930    0.86168    0.40777    1.000
    Si1269   Si       0.18892    0.85691    0.44426    1.000
    N1270    N        0.14869    0.86034    0.42761    1.000
    Si1271   Si       0.16624    0.79203    0.43716    1.000
    N1272    N        0.22434    0.87213    0.42493    1.000
    N1273    N        0.12974    0.79721    0.45856    1.000
    N1274    N        0.19672    0.81575    0.45658    1.000
    N1275    N        0.03867    0.98419    0.42276    1.000
    N1276    N        0.04949    0.91908    0.43858    1.000
    Si1277   Si       0.07979    0.99044    0.43590    1.000
    Si1278   Si       0.02082    0.95107    0.44700    1.000
    Si1279   Si       0.13620    0.88475    0.46163    1.000
    Si1280   Si       0.13604    0.94192    0.40878    1.000
    Si1281   Si       0.21163    0.97396    0.41520    1.000
    N1282    N        0.12130    0.92218    0.44645    1.000
    N1283    N        0.19986    0.00010    0.45032    1.000
    N1284    N        0.07732    0.80177    0.50636    1.000
    Si1285   Si       0.05824    0.76730    0.49303    1.000
    N1286    N        0.01924    0.77503    0.47294    1.000
    N1287    N        0.10822    0.86141    0.48688    1.000
    Si1288   Si       0.99285    0.79864    0.50029    1.000
    Si1289   Si       0.09094    0.87976    0.52485    1.000
    Si1290   Si       0.11517    0.81818    0.49400    1.000
    Si1291   Si       0.22119    0.80086    0.48737    1.000
    N1292    N        0.99373    0.88895    0.49287    1.000
    Si1293   Si       0.05044    0.98267    0.50568    1.000
    N1294    N        0.01503    0.95721    0.49411    1.000
    N1295    N        0.06561    0.90961    0.50484    1.000
    Si1296   Si       0.02325    0.91314    0.51078    1.000
    N1297    N        0.07715    0.96928    0.47274    1.000
    Si1298   Si       0.08194    0.92614    0.46581    1.000
    N1299    N        0.23486    0.92643    0.48629    1.000
    N1300    N        0.17391    0.93847    0.51930    1.000
    N1301    N        0.17877    0.88626    0.47418    1.000
    Si1302   Si       0.20055    0.90713    0.50720    1.000
    N1303    N        0.23553    0.99004    0.51289    1.000
    N1304    N        0.06332    0.85851    0.55352    1.000
    Si1305   Si       0.05916    0.81517    0.54286    1.000
    N1306    N        0.01576    0.81060    0.53601    1.000
    N1307    N        0.07415    0.78745    0.57269    1.000
    Si1308   Si       0.03179    0.87560    0.57867    1.000
    Si1309   Si       0.99118    0.81058    0.57126    1.000
    Si1310   Si       0.15976    0.85951    0.54904    1.000
    N1311    N        0.15283    0.77523    0.57589    1.000
    Si1312   Si       0.16068    0.78430    0.53437    1.000
    Si1313   Si       0.23139    0.79346    0.56155    1.000
    N1314    N        0.19853    0.87773    0.53739    1.000
    N1315    N        0.23626    0.83578    0.56885    1.000
    Si1316   Si       0.24057    0.85820    0.53285    1.000
    N1317    N        0.20508    0.78920    0.52696    1.000
    N1318    N        0.14396    0.82416    0.52644    1.000
    N1319    N        0.99204    0.00775    0.53861    1.000
    N1320    N        0.01282    0.90586    0.55216    1.000
    Si1321   Si       0.08639    0.97569    0.57506    1.000
    N1322    N        0.05467    0.98484    0.54840    1.000
    Si1323   Si       0.23813    0.99589    0.55829    1.000
    Si1324   Si       0.12532    0.92453    0.57724    1.000
    Si1325   Si       0.16249    0.97487    0.53908    1.000
    N1326    N        0.19028    0.98076    0.57425    1.000
    N1327    N        0.12520    0.96625    0.56068    1.000
    N1328    N        0.12600    0.89116    0.55003    1.000
    N1329    N        0.05514    0.83402    0.61913    1.000
    Si1330   Si       0.07846    0.79640    0.61458    1.000
    Si1331   Si       0.01128    0.82791    0.62829    1.000
    N1332    N        0.00928    0.78955    0.60649    1.000
    N1333    N        0.99691    0.85042    0.59026    1.000
    N1334    N        0.06157    0.76804    0.64331    1.000
    Si1335   Si       0.09025    0.84666    0.64226    1.000
    N1336    N        0.11651    0.81472    0.62437    1.000
    Si1337   Si       0.21271    0.86034    0.59502    1.000
    Si1338   Si       0.15656    0.80659    0.60584    1.000
    N1339    N        0.18711    0.79124    0.63508    1.000
    N1340    N        0.22185    0.84445    0.63579    1.000
    N1341    N        0.17032    0.84601    0.58966    1.000
    Si1342   Si       0.99314    0.91686    0.62317    1.000
    N1343    N        0.03185    0.89984    0.61593    1.000
    Si1344   Si       0.07037    0.91584    0.62628    1.000
    N1345    N        0.00035    0.95644    0.63619    1.000
    N1346    N        0.08462    0.93435    0.59150    1.000
    N1347    N        0.10229    0.88776    0.63993    1.000
    N1348    N        0.15609    0.00255    0.62400    1.000
    N1349    N        0.15155    0.92881    0.61237    1.000
    N1350    N        0.22230    0.90125    0.61217    1.000
    N1351    N        0.20938    0.96235    0.63881    1.000
    Si1352   Si       0.23948    0.94047    0.61547    1.000
    Si1353   Si       0.17432    0.96454    0.61365    1.000
    N1354    N        0.07917    0.83259    0.68072    1.000
    N1355    N        0.00788    0.83612    0.67290    1.000
    N1356    N        0.10199    0.76599    0.69949    1.000
    Si1357   Si       0.17543    0.79264    0.67670    1.000
    N1358    N        0.21456    0.80498    0.69220    1.000
    Si1359   Si       0.22979    0.80661    0.65087    1.000
    N1360    N        0.14848    0.81946    0.69435    1.000
    N1361    N        0.04438    0.00220    0.66402    1.000
    N1362    N        0.06081    0.93598    0.66250    1.000
    Si1363   Si       0.09405    0.95645    0.68396    1.000
    Si1364   Si       0.02805    0.96235    0.66719    1.000
    N1365    N        0.10849    0.99702    0.67690    1.000
    Si1366   Si       0.21113    0.00290    0.65619    1.000
    N1367    N        0.23957    0.89304    0.68398    1.000
    Si1368   Si       0.14161    0.90580    0.65008    1.000
    N1369    N        0.17124    0.88100    0.66541    1.000
    Si1370   Si       0.21266    0.88418    0.65092    1.000
    N1371    N        0.12754    0.93069    0.68619    1.000
    N1372    N        0.03204    0.80510    0.73024    1.000
    N1373    N        0.09523    0.82110    0.74434    1.000
    N1374    N        0.04123    0.87231    0.72856    1.000
    Si1375   Si       0.10750    0.80892    0.70437    1.000
    Si1376   Si       0.98962    0.79886    0.74017    1.000
    Si1377   Si       0.04073    0.83735    0.70210    1.000
    N1378    N        0.19821    0.85711    0.73162    1.000
    Si1379   Si       0.22205    0.81878    0.73215    1.000
    N1380    N        0.13432    0.87702    0.73013    1.000
    Si1381   Si       0.16405    0.85979    0.70317    1.000
    N1382    N        0.19578    0.80117    0.76209    1.000
    Si1383   Si       0.09604    0.97664    0.75237    1.000
    N1384    N        0.06872    0.97150    0.71866    1.000
    Si1385   Si       0.02892    0.96465    0.73766    1.000
    N1386    N        0.00194    0.96401    0.70352    1.000
    N1387    N        0.24113    0.97116    0.76157    1.000
    Si1388   Si       0.21736    0.89475    0.72153    1.000
    Si1389   Si       0.14415    0.92045    0.72721    1.000
    N1390    N        0.12458    0.94359    0.75663    1.000
    N1391    N        0.18799    0.92660    0.72670    1.000
    N1392    N        0.17923    0.99327    0.75417    1.000
    Si1393   Si       0.19906    0.95513    0.75711    1.000
    N1394    N        0.04735    0.81948    0.79623    1.000
    Si1395   Si       0.00610    0.83873    0.80055    1.000
    N1396    N        0.01234    0.88250    0.79895    1.000
    N1397    N        0.99170    0.76136    0.76317    1.000
    Si1398   Si       0.06329    0.79831    0.76155    1.000
    Si1399   Si       0.10975    0.85866    0.76116    1.000
    N1400    N        0.20672    0.86419    0.80054    1.000
    N1401    N        0.14301    0.84573    0.78974    1.000
    Si1402   Si       0.18207    0.84089    0.77198    1.000
    Si1403   Si       0.04427    0.89216    0.76787    1.000
    Si1404   Si       0.10192    0.93047    0.79584    1.000
    Si1405   Si       0.04229    0.98858    0.79901    1.000
    N1406    N        0.07636    0.96558    0.78772    1.000
    N1407    N        0.08679    0.89242    0.77891    1.000
    Si1408   Si       0.99791    0.92407    0.79662    1.000
    N1409    N        0.02233    0.00002    0.76246    1.000
    N1410    N        0.02368    0.92987    0.76003    1.000
    N1411    N        0.19897    0.93256    0.79359    1.000
    Si1412   Si       0.16843    0.00801    0.79459    1.000
    Si1413   Si       0.22735    0.90019    0.79062    1.000
    N1414    N        0.04339    0.83355    0.86190    1.000
    Si1415   Si       0.06094    0.80320    0.83458    1.000
    N1416    N        0.10537    0.80386    0.83349    1.000
    N1417    N        0.10230    0.86796    0.84839    1.000
    N1418    N        0.04788    0.76483    0.84153    1.000
    Si1419   Si       0.00111    0.82691    0.87148    1.000
    Si1420   Si       0.07250    0.86004    0.87824    1.000
    Si1421   Si       0.12038    0.76596    0.84856    1.000
    Si1422   Si       0.13004    0.83762    0.83069    1.000
    N1423    N        0.16654    0.83559    0.85523    1.000
    Si1424   Si       0.19320    0.86540    0.84112    1.000
    N1425    N        0.16358    0.76833    0.85456    1.000
    N1426    N        0.23080    0.86931    0.86658    1.000
    Si1427   Si       0.17915    0.80208    0.87695    1.000
    Si1428   Si       0.99761    0.98998    0.84989    1.000
    N1429    N        0.11473    0.93934    0.83509    1.000
    N1430    N        0.01244    0.96203    0.81779    1.000
    N1431    N        0.16833    0.90030    0.84331    1.000
    Si1432   Si       0.18513    0.94038    0.83482    1.000
    Si1433   Si       0.12746    0.90204    0.85881    1.000
    N1434    N        0.21997    0.94194    0.86163    1.000
    Si1435   Si       0.13158    0.97430    0.85519    1.000
    N1436    N        0.16507    0.97980    0.82655    1.000
    N1437    N        0.09280    0.83355    0.90593    1.000
    N1438    N        0.00999    0.79921    0.90614    1.000
    N1439    N        0.10666    0.76497    0.89062    1.000
    Si1440   Si       0.11621    0.80058    0.91569    1.000
    N1441    N        0.16005    0.80450    0.91372    1.000
    N1442    N        0.21486    0.84867    0.93084    1.000
    Si1443   Si       0.24088    0.83976    0.89727    1.000
    N1444    N        0.22327    0.80194    0.88158    1.000
    N1445    N        0.05278    0.89389    0.89765    1.000
    Si1446   Si       0.00880    0.88830    0.90577    1.000
    N1447    N        0.99500    0.93028    0.90878    1.000
    Si1448   Si       0.08406    0.90690    0.92394    1.000
    Si1449   Si       0.02851    0.95774    0.91441    1.000
    N1450    N        0.07217    0.94895    0.92775    1.000
    N1451    N        0.02854    0.98747    0.88162    1.000
    N1452    N        0.12072    0.90509    0.90064    1.000
    N1453    N        0.20229    0.00027    0.90630    1.000
    Si1454   Si       0.20240    0.95643    0.90119    1.000
    N1455    N        0.13243    0.00033    0.92434    1.000
    N1456    N        0.15970    0.95288    0.88395    1.000
    N1457    N        0.19206    0.92182    0.92703    1.000
    Si1458   Si       0.15114    0.92881    0.91955    1.000
    N1459    N        0.04554    0.82344    0.96945    1.000
    Si1460   Si       0.04996    0.86573    0.97053    1.000
    Si1461   Si       0.06903    0.78854    0.97383    1.000
    N1462    N        0.01263    0.86827    0.94477    1.000
    Si1463   Si       0.00954    0.82369    0.94297    1.000
    N1464    N        0.10956    0.79417    0.95933    1.000
    N1465    N        0.17691    0.80054    0.97809    1.000
    N1466    N        0.16074    0.86575    0.95638    1.000
    Si1467   Si       0.17778    0.82838    0.94485    1.000
    Si1468   Si       0.13423    0.79750    0.99218    1.000
    N1469    N        0.08719    0.88546    0.96052    1.000
    N1470    N        0.10515    0.98609    0.98353    1.000
    N1471    N        0.00996    0.98268    0.94548    1.000
    Si1472   Si       0.01085    0.98496    0.98973    1.000
    Si1473   Si       0.09550    0.98448    0.94183    1.000
    N1474    N        0.22735    0.89288    0.97897    1.000
    Si1475   Si       0.12813    0.89074    0.97347    1.000
    Si1476   Si       0.19988    0.88572    0.94933    1.000
    Si1477   Si       0.14264    0.96247    0.98554    1.000
    N1478    N        0.17493    0.98788    0.97384    1.000
    N1479    N        0.13384    0.93057    0.95777    1.000
    N1480    N        0.26973    0.05747    0.03613    1.000
    N1481    N        0.26319    0.11776    0.02147    1.000
    N1482    N        0.32304    0.10886    0.03984    1.000
    Si1483   Si       0.29407    0.08667    0.01357    1.000
    Si1484   Si       0.23999    0.04007    0.00647    1.000
    N1485    N        0.41924    0.00807    0.01129    1.000
    Si1486   Si       0.40672    0.05038    0.01181    1.000
    N1487    N        0.43842    0.07807    0.02665    1.000
    N1488    N        0.37618    0.05931    0.04194    1.000
    N1489    N        0.48233    0.12289    0.03398    1.000
    Si1490   Si       0.46430    0.09885    0.99913    1.000
    N1491    N        0.39680    0.12047    0.05491    1.000
    Si1492   Si       0.29110    0.14156    0.04737    1.000
    N1493    N        0.33293    0.23909    0.04025    1.000
    Si1494   Si       0.26898    0.21138    0.03459    1.000
    Si1495   Si       0.33735    0.19647    0.02684    1.000
    N1496    N        0.29692    0.17857    0.02756    1.000
    N1497    N        0.41085    0.23444    0.02333    1.000
    Si1498   Si       0.39732    0.16306    0.04735    1.000
    N1499    N        0.39406    0.17178    0.00606    1.000
    Si1500   Si       0.48430    0.16379    0.04991    1.000
    N1501    N        0.48386    0.24685    0.00753    1.000
    N1502    N        0.32288    0.04004    0.08707    1.000
    N1503    N        0.34811    0.10284    0.10055    1.000
    N1504    N        0.26920    0.09656    0.09917    1.000
    Si1505   Si       0.35666    0.02733    0.06108    1.000
    Si1506   Si       0.31130    0.08236    0.10613    1.000
    Si1507   Si       0.24366    0.07372    0.07077    1.000
    Si1508   Si       0.36054    0.09854    0.05883    1.000
    Si1509   Si       0.29413    0.02446    0.05475    1.000
    N1510    N        0.45374    0.10422    0.09338    1.000
    Si1511   Si       0.43940    0.11299    0.05375    1.000
    Si1512   Si       0.33594    0.25203    0.08180    1.000
    Si1513   Si       0.28356    0.23895    0.10695    1.000
    N1514    N        0.26424    0.23743    0.06902    1.000
    Si1515   Si       0.33203    0.17564    0.09718    1.000
    N1516    N        0.29525    0.15305    0.08898    1.000
    N1517    N        0.32153    0.21607    0.10222    1.000
    N1518    N        0.35746    0.17732    0.05972    1.000
    Si1519   Si       0.25849    0.13846    0.10971    1.000
    N1520    N        0.43803    0.21859    0.10669    1.000
    Si1521   Si       0.45065    0.17869    0.10042    1.000
    N1522    N        0.37847    0.25803    0.08289    1.000
    N1523    N        0.43972    0.16470    0.06057    1.000
    N1524    N        0.31845    0.06565    0.14722    1.000
    Si1525   Si       0.33099    0.02793    0.12922    1.000
    Si1526   Si       0.27006    0.01828    0.17038    1.000
    N1527    N        0.23731    0.04593    0.16579    1.000
    Si1528   Si       0.36761    0.12027    0.13474    1.000
    N1529    N        0.48426    0.09886    0.14660    1.000
    N1530    N        0.44361    0.04328    0.11948    1.000
    Si1531   Si       0.44477    0.11716    0.13693    1.000
    N1532    N        0.37607    0.02812    0.13679    1.000
    Si1533   Si       0.40921    0.05349    0.14806    1.000
    N1534    N        0.40444    0.09941    0.14057    1.000
    Si1535   Si       0.47632    0.07341    0.11273    1.000
    N1536    N        0.35896    0.16216    0.12918    1.000
    N1537    N        0.27074    0.22863    0.14595    1.000
    N1538    N        0.25498    0.16069    0.14816    1.000
    Si1539   Si       0.36240    0.19475    0.15773    1.000
    N1540    N        0.37843    0.23285    0.14532    1.000
    N1541    N        0.43818    0.15954    0.13696    1.000
    Si1542   Si       0.40538    0.24475    0.11373    1.000
    N1543    N        0.28756    0.04088    0.20248    1.000
    Si1544   Si       0.32268    0.08512    0.18748    1.000
    N1545    N        0.28343    0.10341    0.18973    1.000
    Si1546   Si       0.25190    0.07137    0.19714    1.000
    N1547    N        0.34005    0.06792    0.22291    1.000
    N1548    N        0.35109    0.11705    0.17646    1.000
    N1549    N        0.42513    0.05317    0.19009    1.000
    Si1550   Si       0.44656    0.02736    0.21700    1.000
    Si1551   Si       0.42641    0.09092    0.21204    1.000
    N1552    N        0.44193    0.12829    0.19414    1.000
    N1553    N        0.48968    0.03416    0.20961    1.000
    Si1554   Si       0.26017    0.14073    0.18590    1.000
    N1555    N        0.32606    0.20009    0.18249    1.000
    N1556    N        0.27574    0.23658    0.21502    1.000
    N1557    N        0.27802    0.16822    0.21376    1.000
    Si1558   Si       0.25109    0.20116    0.22085    1.000
    Si1559   Si       0.30060    0.23543    0.17724    1.000
    Si1560   Si       0.31706    0.18767    0.22421    1.000
    N1561    N        0.46394    0.25528    0.17392    1.000
    Si1562   Si       0.42953    0.16705    0.17827    1.000
    Si1563   Si       0.36859    0.13931    0.20756    1.000
    Si1564   Si       0.46200    0.23269    0.21098    1.000
    N1565    N        0.38763    0.17243    0.18713    1.000
    Si1566   Si       0.47890    0.14618    0.21720    1.000
    N1567    N        0.45310    0.18832    0.20774    1.000
    N1568    N        0.29737    0.05403    0.27717    1.000
    Si1569   Si       0.31208    0.03751    0.23745    1.000
    N1570    N        0.34265    0.10333    0.28579    1.000
    N1571    N        0.27691    0.13019    0.28189    1.000
    Si1572   Si       0.36501    0.08528    0.25331    1.000
    Si1573   Si       0.42976    0.06678    0.28124    1.000
    N1574    N        0.45279    0.07290    0.24562    1.000
    N1575    N        0.38748    0.05402    0.27210    1.000
    Si1576   Si       0.41591    0.13229    0.26520    1.000
    Si1577   Si       0.36283    0.02420    0.29010    1.000
    N1578    N        0.39346    0.11134    0.23318    1.000
    Si1579   Si       0.31954    0.13752    0.27511    1.000
    N1580    N        0.33786    0.21258    0.25253    1.000
    N1581    N        0.33735    0.14817    0.23561    1.000
    Si1582   Si       0.34235    0.24796    0.27937    1.000
    N1583    N        0.29084    0.25166    0.28220    1.000
    N1584    N        0.24355    0.19736    0.26332    1.000
    Si1585   Si       0.24160    0.15602    0.27808    1.000
    N1586    N        0.45624    0.14695    0.25856    1.000
    Si1587   Si       0.36224    0.18614    0.27791    1.000
    Si1588   Si       0.43323    0.19441    0.24719    1.000
    N1589    N        0.42662    0.23780    0.23610    1.000
    N1590    N        0.39907    0.17218    0.26418    1.000
    N1591    N        0.45490    0.20588    0.28401    1.000
    N1592    N        0.33827    0.03907    0.32342    1.000
    Si1593   Si       0.31964    0.07612    0.30805    1.000
    Si1594   Si       0.26041    0.11520    0.32423    1.000
    N1595    N        0.29819    0.09923    0.33820    1.000
    N1596    N        0.23464    0.08663    0.34429    1.000
    N1597    N        0.27649    0.00892    0.32824    1.000
    Si1598   Si       0.26814    0.02562    0.28987    1.000
    N1599    N        0.44236    0.03918    0.31248    1.000
    N1600    N        0.41946    0.10655    0.29942    1.000
    Si1601   Si       0.42662    0.11733    0.34051    1.000
    N1602    N        0.33191    0.16967    0.30247    1.000
    Si1603   Si       0.32853    0.17790    0.34564    1.000
    Si1604   Si       0.25130    0.23308    0.28630    1.000
    N1605    N        0.44310    0.15755    0.33109    1.000
    N1606    N        0.38088    0.22481    0.30076    1.000
    Si1607   Si       0.42731    0.23477    0.30093    1.000
    Si1608   Si       0.46790    0.16770    0.29584    1.000
    Si1609   Si       0.30738    0.11017    0.37887    1.000
    N1610    N        0.30492    0.03247    0.38981    1.000
    N1611    N        0.27011    0.11019    0.39913    1.000
    N1612    N        0.33712    0.08809    0.40045    1.000
    Si1613   Si       0.34123    0.04582    0.41032    1.000
    Si1614   Si       0.31461    0.01474    0.35082    1.000
    N1615    N        0.45760    0.09471    0.36137    1.000
    N1616    N        0.38601    0.05041    0.39652    1.000
    N1617    N        0.39526    0.12301    0.37218    1.000
    N1618    N        0.45238    0.02382    0.38167    1.000
    Si1619   Si       0.38065    0.09207    0.39783    1.000
    Si1620   Si       0.46214    0.05164    0.34951    1.000
    N1621    N        0.25003    0.23363    0.39383    1.000
    Si1622   Si       0.32950    0.23787    0.39071    1.000
    N1623    N        0.31850    0.15269    0.38068    1.000
    Si1624   Si       0.26892    0.23172    0.35389    1.000
    N1625    N        0.30914    0.21628    0.35862    1.000
    N1626    N        0.37194    0.18441    0.35677    1.000
    N1627    N        0.43132    0.17749    0.39749    1.000
    N1628    N        0.36937    0.24868    0.37771    1.000
    N1629    N        0.43002    0.22835    0.34412    1.000
    Si1630   Si       0.38862    0.16330    0.39182    1.000
    Si1631   Si       0.38297    0.22356    0.34586    1.000
    Si1632   Si       0.45036    0.18997    0.35864    1.000
    N1633    N        0.46970    0.24473    0.40101    1.000
    N1634    N        0.27888    0.04588    0.45443    1.000
    N1635    N        0.34196    0.01812    0.44339    1.000
    Si1636   Si       0.35949    0.12945    0.45429    1.000
    Si1637   Si       0.30651    0.01339    0.46566    1.000
    Si1638   Si       0.27587    0.12861    0.43927    1.000
    Si1639   Si       0.26756    0.03647    0.41272    1.000
    Si1640   Si       0.42686    0.09362    0.46107    1.000
    N1641    N        0.44086    0.05719    0.44322    1.000
    N1642    N        0.38813    0.10031    0.44111    1.000
    N1643    N        0.44986    0.12977    0.45458    1.000
    Si1644   Si       0.48328    0.05510    0.45253    1.000
    Si1645   Si       0.42312    0.03262    0.41304    1.000
    N1646    N        0.31644    0.13735    0.45578    1.000
    N1647    N        0.27161    0.17195    0.42988    1.000
    Si1648   Si       0.32107    0.17054    0.42219    1.000
    Si1649   Si       0.25605    0.21386    0.43182    1.000
    N1650    N        0.32715    0.21405    0.42601    1.000
    N1651    N        0.27479    0.23558    0.46305    1.000
    Si1652   Si       0.31726    0.22844    0.46479    1.000
    N1653    N        0.36640    0.16199    0.42751    1.000
    N1654    N        0.41124    0.25209    0.43837    1.000
    Si1655   Si       0.45193    0.17027    0.43627    1.000
    Si1656   Si       0.25265    0.07000    0.47875    1.000
    N1657    N        0.26538    0.06392    0.52049    1.000
    N1658    N        0.24993    0.11632    0.47118    1.000
    N1659    N        0.31319    0.01244    0.50853    1.000
    N1660    N        0.39141    0.01852    0.48667    1.000
    N1661    N        0.41757    0.08383    0.50427    1.000
    Si1662   Si       0.40861    0.04184    0.51860    1.000
    Si1663   Si       0.39461    0.11477    0.52395    1.000
    N1664    N        0.48257    0.08298    0.48838    1.000
    N1665    N        0.48101    0.01281    0.47070    1.000
    N1666    N        0.36363    0.13120    0.49640    1.000
    Si1667   Si       0.45958    0.07555    0.52374    1.000
    N1668    N        0.32555    0.19598    0.49359    1.000
    Si1669   Si       0.32389    0.14965    0.49945    1.000
    N1670    N        0.43234    0.19219    0.47050    1.000
    Si1671   Si       0.42123    0.23305    0.47513    1.000
    N1672    N        0.39218    0.23871    0.50650    1.000
    Si1673   Si       0.44382    0.17491    0.50876    1.000
    N1674    N        0.31810    0.06234    0.56472    1.000
    Si1675   Si       0.32901    0.10481    0.55791    1.000
    Si1676   Si       0.29492    0.03753    0.53785    1.000
    N1677    N        0.27564    0.01622    0.57004    1.000
    Si1678   Si       0.36451    0.05608    0.57734    1.000
    N1679    N        0.37301    0.09601    0.55549    1.000
    N1680    N        0.38559    0.02625    0.55177    1.000
    N1681    N        0.47024    0.09991    0.55754    1.000
    N1682    N        0.45033    0.03387    0.52815    1.000
    N1683    N        0.30618    0.13436    0.53425    1.000
    N1684    N        0.33462    0.25429    0.53168    1.000
    Si1685   Si       0.33596    0.21087    0.53319    1.000
    Si1686   Si       0.28056    0.16253    0.55505    1.000
    N1687    N        0.30381    0.19904    0.55911    1.000
    N1688    N        0.24471    0.16971    0.53325    1.000
    N1689    N        0.42489    0.14427    0.53238    1.000
    Si1690   Si       0.40359    0.22558    0.54631    1.000
    Si1691   Si       0.47772    0.20993    0.56125    1.000
    Si1692   Si       0.44814    0.13734    0.56840    1.000
    N1693    N        0.47454    0.16873    0.57469    1.000
    N1694    N        0.44286    0.20935    0.53676    1.000
    N1695    N        0.36948    0.20099    0.55872    1.000
    N1696    N        0.40513    0.24790    0.58491    1.000
    N1697    N        0.28331    0.06179    0.62612    1.000
    Si1698   Si       0.30290    0.03667    0.59700    1.000
    N1699    N        0.33677    0.11858    0.60025    1.000
    N1700    N        0.34278    0.01537    0.59828    1.000
    Si1701   Si       0.23960    0.07090    0.62669    1.000
    N1702    N        0.23645    0.08929    0.58615    1.000
    N1703    N        0.38534    0.06760    0.61132    1.000
    Si1704   Si       0.38004    0.10959    0.60739    1.000
    N1705    N        0.43909    0.02496    0.63573    1.000
    N1706    N        0.48147    0.08165    0.62768    1.000
    N1707    N        0.41878    0.13119    0.59931    1.000
    N1708    N        0.32865    0.18240    0.61606    1.000
    N1709    N        0.27015    0.21769    0.62347    1.000
    Si1710   Si       0.30781    0.14495    0.61951    1.000
    Si1711   Si       0.30585    0.22086    0.59706    1.000
    N1712    N        0.34202    0.24290    0.60826    1.000
    Si1713   Si       0.24667    0.24803    0.60403    1.000
    N1714    N        0.26977    0.14875    0.59598    1.000
    Si1715   Si       0.36569    0.20413    0.60339    1.000
    Si1716   Si       0.41708    0.14996    0.63869    1.000
    N1717    N        0.39847    0.18976    0.62704    1.000
    N1718    N        0.47579    0.23417    0.59870    1.000
    Si1719   Si       0.43920    0.25495    0.61049    1.000
    N1720    N        0.33920    0.07357    0.67826    1.000
    N1721    N        0.26320    0.07574    0.68511    1.000
    Si1722   Si       0.30026    0.08387    0.66170    1.000
    N1723    N        0.29637    0.12685    0.65508    1.000
    N1724    N        0.24837    0.00855    0.68071    1.000
    N1725    N        0.47624    0.06859    0.69045    1.000
    Si1726   Si       0.37399    0.09841    0.68582    1.000
    N1727    N        0.41057    0.07120    0.67893    1.000
    Si1728   Si       0.47975    0.10666    0.66407    1.000
    N1729    N        0.38157    0.12505    0.65101    1.000
    Si1730   Si       0.47691    0.04454    0.65145    1.000
    N1731    N        0.37781    0.01301    0.66183    1.000
    Si1732   Si       0.40080    0.04642    0.64589    1.000
    N1733    N        0.24391    0.15104    0.69012    1.000
    N1734    N        0.30250    0.19521    0.68528    1.000
    Si1735   Si       0.27831    0.22677    0.66571    1.000
    Si1736   Si       0.28727    0.15461    0.68656    1.000
    N1737    N        0.45243    0.13942    0.65990    1.000
    N1738    N        0.48505    0.20355    0.67755    1.000
    N1739    N        0.36334    0.22567    0.67140    1.000
    Si1740   Si       0.47203    0.24378    0.67816    1.000
    Si1741   Si       0.40572    0.21478    0.66268    1.000
    Si1742   Si       0.46118    0.16898    0.69021    1.000
    N1743    N        0.42263    0.19190    0.69433    1.000
    N1744    N        0.43367    0.24559    0.65399    1.000
    N1745    N        0.30036    0.03819    0.72688    1.000
    Si1746   Si       0.26225    0.03915    0.70972    1.000
    N1747    N        0.36617    0.02501    0.72636    1.000
    Si1748   Si       0.33533    0.03499    0.69725    1.000
    N1749    N        0.37648    0.11701    0.72645    1.000
    N1750    N        0.43509    0.08099    0.74763    1.000
    Si1751   Si       0.43767    0.05877    0.71100    1.000
    N1752    N        0.43163    0.01506    0.71217    1.000
    N1753    N        0.30507    0.13832    0.72238    1.000
    Si1754   Si       0.34496    0.14509    0.73646    1.000
    N1755    N        0.33174    0.24665    0.73075    1.000
    N1756    N        0.35975    0.18303    0.72609    1.000
    Si1757   Si       0.33778    0.21409    0.70288    1.000
    N1758    N        0.26399    0.22929    0.75577    1.000
    N1759    N        0.41308    0.15912    0.76183    1.000
    Si1760   Si       0.40141    0.18828    0.73096    1.000
    N1761    N        0.46594    0.25162    0.71973    1.000
    N1762    N        0.41619    0.22388    0.75762    1.000
    N1763    N        0.48492    0.14764    0.71863    1.000
    N1764    N        0.33694    0.05137    0.78901    1.000
    N1765    N        0.27149    0.03153    0.79270    1.000
    Si1766   Si       0.29823    0.05399    0.76656    1.000
    Si1767   Si       0.35525    0.12702    0.81041    1.000
    N1768    N        0.27427    0.09138    0.76350    1.000
    Si1769   Si       0.28952    0.13142    0.76194    1.000
    Si1770   Si       0.36582    0.02564    0.77085    1.000
    N1771    N        0.40403    0.03392    0.79253    1.000
    N1772    N        0.38979    0.10561    0.79615    1.000
    Si1773   Si       0.46444    0.08297    0.77873    1.000
    N1774    N        0.46540    0.12797    0.78619    1.000
    N1775    N        0.47210    0.01378    0.76869    1.000
    Si1776   Si       0.40410    0.06881    0.81658    1.000
    N1777    N        0.44743    0.07843    0.82036    1.000
    Si1778   Si       0.40794    0.11477    0.75752    1.000
    N1779    N        0.33113    0.13382    0.77655    1.000
    N1780    N        0.30080    0.20444    0.81093    1.000
    N1781    N        0.26258    0.16096    0.77471    1.000
    Si1782   Si       0.26289    0.20154    0.79063    1.000
    N1783    N        0.47462    0.19255    0.77576    1.000
    Si1784   Si       0.48872    0.15512    0.76151    1.000
    Si1785   Si       0.43191    0.19104    0.78347    1.000
    N1786    N        0.31393    0.03629    0.85596    1.000
    N1787    N        0.32923    0.10462    0.83769    1.000
    Si1788   Si       0.33773    0.06264    0.83210    1.000
    Si1789   Si       0.28023    0.01840    0.83323    1.000
    N1790    N        0.24751    0.03846    0.85644    1.000
    Si1791   Si       0.31384    0.11810    0.87584    1.000
    N1792    N        0.37853    0.06028    0.85057    1.000
    Si1793   Si       0.45842    0.12197    0.82781    1.000
    Si1794   Si       0.39154    0.02172    0.87200    1.000
    N1795    N        0.42559    0.13497    0.85337    1.000
    N1796    N        0.23817    0.20517    0.82868    1.000
    Si1797   Si       0.24019    0.23960    0.85345    1.000
    N1798    N        0.33204    0.23238    0.85911    1.000
    Si1799   Si       0.32892    0.18997    0.84158    1.000
    N1800    N        0.31195    0.16326    0.87294    1.000
    Si1801   Si       0.30477    0.24856    0.82464    1.000
    N1802    N        0.36259    0.16670    0.82682    1.000
    N1803    N        0.40295    0.25450    0.85034    1.000
    N1804    N        0.47016    0.24597    0.82668    1.000
    Si1805   Si       0.43834    0.23041    0.84962    1.000
    Si1806   Si       0.37189    0.23406    0.87563    1.000
    Si1807   Si       0.39994    0.17016    0.84739    1.000
    N1808    N        0.42790    0.19505    0.82463    1.000
    N1809    N        0.29966    0.03862    0.91733    1.000
    N1810    N        0.33822    0.09903    0.90643    1.000
    Si1811   Si       0.27237    0.05853    0.89040    1.000
    Si1812   Si       0.32724    0.01376    0.89221    1.000
    Si1813   Si       0.24238    0.12950    0.88770    1.000
    N1814    N        0.27442    0.10218    0.88083    1.000
    N1815    N        0.36654    0.03179    0.90682    1.000
    Si1816   Si       0.37031    0.07464    0.89467    1.000
    N1817    N        0.46805    0.09256    0.89368    1.000
    N1818    N        0.40891    0.08730    0.91206    1.000
    Si1819   Si       0.43404    0.12020    0.89389    1.000
    Si1820   Si       0.44384    0.05836    0.90782    1.000
    N1821    N        0.43399    0.02528    0.88007    1.000
    Si1822   Si       0.30907    0.24567    0.89441    1.000
    N1823    N        0.26682    0.23465    0.89149    1.000
    N1824    N        0.25376    0.16785    0.90686    1.000
    Si1825   Si       0.29481    0.17747    0.91127    1.000
    N1826    N        0.31578    0.21329    0.92305    1.000
    N1827    N        0.38832    0.19426    0.88101    1.000
    N1828    N        0.36954    0.24849    0.91467    1.000
    N1829    N        0.43793    0.15576    0.91532    1.000
    Si1830   Si       0.41739    0.19416    0.91251    1.000
    N1831    N        0.44651    0.22404    0.89357    1.000
    Si1832   Si       0.48113    0.24626    0.90797    1.000
    N1833    N        0.30796    0.07853    0.97371    1.000
    Si1834   Si       0.30196    0.03663    0.95902    1.000
    Si1835   Si       0.32645    0.10889    0.94731    1.000
    N1836    N        0.26839    0.01733    0.98291    1.000
    N1837    N        0.33603    0.01267    0.96753    1.000
    N1838    N        0.36421    0.11996    0.96265    1.000
    N1839    N        0.39357    0.05712    0.97150    1.000
    N1840    N        0.43704    0.11545    0.96929    1.000
    Si1841   Si       0.40004    0.09702    0.95426    1.000
    Si1842   Si       0.37631    0.02141    0.94803    1.000
    N1843    N        0.45738    0.03644    0.94610    1.000
    Si1844   Si       0.28977    0.18140    0.98244    1.000
    N1845    N        0.33586    0.18959    0.98305    1.000
    Si1846   Si       0.34986    0.21814    0.95099    1.000
    N1847    N        0.24606    0.17113    0.97628    1.000
    N1848    N        0.30356    0.14800    0.94601    1.000
    N1849    N        0.27465    0.22704    0.99376    1.000
    N1850    N        0.35841    0.25394    0.97622    1.000
    N1851    N        0.38963    0.19602    0.94914    1.000
    N1852    N        0.43160    0.24657    0.96511    1.000
    Si1853   Si       0.45781    0.15259    0.95393    1.000
    Si1854   Si       0.46997    0.22511    0.97357    1.000
    Si1855   Si       0.41163    0.20827    0.98944    1.000
    N1856    N        0.45095    0.18809    0.97746    1.000
    Si1857   Si       0.36821    0.16234    0.97199    1.000
    Si1858   Si       0.34143    0.27142    0.01124    1.000
    N1859    N        0.30918    0.36662    0.00963    1.000
    Si1860   Si       0.26573    0.37556    0.01552    1.000
    N1861    N        0.30368    0.29224    0.00241    1.000
    N1862    N        0.25143    0.35818    0.05238    1.000
    N1863    N        0.23657    0.28120    0.01419    1.000
    N1864    N        0.37561    0.37238    0.00523    1.000
    N1865    N        0.37511    0.29792    0.02490    1.000
    Si1866   Si       0.46892    0.28260    0.02936    1.000
    N1867    N        0.42945    0.35604    0.03887    1.000
    Si1868   Si       0.38590    0.33964    0.03100    1.000
    Si1869   Si       0.45839    0.34951    0.00630    1.000
    Si1870   Si       0.40002    0.26775    0.04765    1.000
    N1871    N        0.45850    0.30690    0.99542    1.000
    N1872    N        0.26022    0.41747    0.00783    1.000
    N1873    N        0.27872    0.48371    0.02392    1.000
    Si1874   Si       0.34023    0.39477    0.01590    1.000
    Si1875   Si       0.28885    0.44847    0.99995    1.000
    N1876    N        0.38010    0.49176    0.00506    1.000
    Si1877   Si       0.40186    0.49250    0.04105    1.000
    Si1878   Si       0.48128    0.48542    0.03877    1.000
    N1879    N        0.44056    0.47244    0.02794    1.000
    Si1880   Si       0.27052    0.36039    0.09078    1.000
    Si1881   Si       0.34769    0.36754    0.09132    1.000
    N1882    N        0.31135    0.34626    0.09736    1.000
    N1883    N        0.30663    0.27793    0.10411    1.000
    N1884    N        0.45214    0.34260    0.10164    1.000
    Si1885   Si       0.42006    0.36337    0.08022    1.000
    N1886    N        0.38076    0.34363    0.07542    1.000
    Si1887   Si       0.44999    0.29894    0.09970    1.000
    N1888    N        0.43889    0.28412    0.05999    1.000
    N1889    N        0.30039    0.46600    0.08472    1.000
    N1890    N        0.27485    0.40282    0.09946    1.000
    Si1891   Si       0.26482    0.48052    0.06514    1.000
    Si1892   Si       0.34208    0.48225    0.09110    1.000
    N1893    N        0.34869    0.40020    0.05857    1.000
    N1894    N        0.46200    0.44766    0.11137    1.000
    N1895    N        0.37699    0.46767    0.06726    1.000
    Si1896   Si       0.37357    0.42741    0.08166    1.000
    N1897    N        0.41119    0.40540    0.08870    1.000
    N1898    N        0.35372    0.31182    0.14028    1.000
    Si1899   Si       0.31161    0.31354    0.12508    1.000
    Si1900   Si       0.25194    0.34061    0.16481    1.000
    N1901    N        0.29088    0.32112    0.16353    1.000
    N1902    N        0.24285    0.34502    0.12193    1.000
    N1903    N        0.36673    0.37516    0.12966    1.000
    Si1904   Si       0.36785    0.27304    0.16204    1.000
    Si1905   Si       0.36696    0.34689    0.16307    1.000
    N1906    N        0.42273    0.28388    0.12844    1.000
    Si1907   Si       0.43786    0.28890    0.16788    1.000
    Si1908   Si       0.48210    0.37019    0.11763    1.000
    N1909    N        0.28405    0.44163    0.15357    1.000
    Si1910   Si       0.24750    0.46204    0.16550    1.000
    N1911    N        0.36137    0.49976    0.12705    1.000
    N1912    N        0.24727    0.50436    0.15728    1.000
    Si1913   Si       0.36317    0.41538    0.14826    1.000
    N1914    N        0.34709    0.43599    0.11451    1.000
    Si1915   Si       0.30234    0.43338    0.11426    1.000
    Si1916   Si       0.43096    0.41999    0.12449    1.000
    N1917    N        0.42761    0.50422    0.13090    1.000
    Si1918   Si       0.46451    0.48162    0.13854    1.000
    N1919    N        0.39930    0.43749    0.14870    1.000
    N1920    N        0.45427    0.39134    0.14629    1.000
    Si1921   Si       0.39323    0.48215    0.14843    1.000
    Si1922   Si       0.31561    0.30779    0.19590    1.000
    N1923    N        0.35119    0.33114    0.20318    1.000
    N1924    N        0.32945    0.26698    0.18235    1.000
    N1925    N        0.40060    0.28230    0.18922    1.000
    N1926    N        0.40600    0.35359    0.18069    1.000
    Si1927   Si       0.39157    0.34021    0.21975    1.000
    N1928    N        0.45898    0.37917    0.21716    1.000
    Si1929   Si       0.44830    0.36228    0.17828    1.000
    N1930    N        0.46687    0.32408    0.17236    1.000
    N1931    N        0.28885    0.42989    0.22014    1.000
    N1932    N        0.27255    0.49372    0.21888    1.000
    Si1933   Si       0.29115    0.40910    0.18384    1.000
    N1934    N        0.33382    0.40225    0.17791    1.000
    N1935    N        0.25538    0.38369    0.17759    1.000
    N1936    N        0.46600    0.46428    0.18054    1.000
    Si1937   Si       0.42940    0.46711    0.20578    1.000
    N1938    N        0.39424    0.48789    0.19200    1.000
    Si1939   Si       0.37182    0.50917    0.22277    1.000
    Si1940   Si       0.30060    0.33385    0.26489    1.000
    N1941    N        0.34244    0.34060    0.27384    1.000
    N1942    N        0.28222    0.37106    0.25618    1.000
    Si1943   Si       0.27555    0.26905    0.24366    1.000
    Si1944   Si       0.36203    0.38102    0.27629    1.000
    N1945    N        0.29610    0.30579    0.23327    1.000
    Si1946   Si       0.36600    0.30743    0.28849    1.000
    N1947    N        0.36543    0.27728    0.25571    1.000
    N1948    N        0.41644    0.31394    0.24376    1.000
    N1949    N        0.39213    0.37663    0.24560    1.000
    Si1950   Si       0.43408    0.31498    0.28365    1.000
    Si1951   Si       0.40322    0.27334    0.23280    1.000
    Si1952   Si       0.25448    0.45734    0.23581    1.000
    Si1953   Si       0.29591    0.41122    0.25892    1.000
    N1954    N        0.33865    0.41793    0.27192    1.000
    N1955    N        0.31387    0.48171    0.27292    1.000
    N1956    N        0.25364    0.42314    0.27177    1.000
    Si1957   Si       0.34920    0.45985    0.28204    1.000
    Si1958   Si       0.42008    0.46876    0.26891    1.000
    N1959    N        0.37735    0.48748    0.26183    1.000
    Si1960   Si       0.42997    0.39523    0.24265    1.000
    N1961    N        0.42011    0.43627    0.23544    1.000
    N1962    N        0.43853    0.49540    0.23914    1.000
    N1963    N        0.45058    0.39503    0.28089    1.000
    Si1964   Si       0.29553    0.28496    0.31279    1.000
    N1965    N        0.33785    0.28266    0.30952    1.000
    Si1966   Si       0.25679    0.34718    0.32786    1.000
    N1967    N        0.27740    0.32075    0.29877    1.000
    N1968    N        0.27715    0.27273    0.34756    1.000
    N1969    N        0.40049    0.32135    0.31014    1.000
    Si1970   Si       0.39813    0.35330    0.33964    1.000
    N1971    N        0.44398    0.27479    0.29797    1.000
    N1972    N        0.43399    0.37836    0.34474    1.000
    Si1973   Si       0.48504    0.28791    0.30585    1.000
    Si1974   Si       0.48678    0.37293    0.29242    1.000
    N1975    N        0.47248    0.33117    0.29673    1.000
    N1976    N        0.27227    0.46463    0.32855    1.000
    N1977    N        0.34204    0.46731    0.32588    1.000
    Si1978   Si       0.30925    0.45039    0.34857    1.000
    N1979    N        0.25401    0.38601    0.34830    1.000
    Si1980   Si       0.25797    0.50069    0.34917    1.000
    N1981    N        0.40175    0.49997    0.34540    1.000
    Si1982   Si       0.43799    0.50829    0.32377    1.000
    N1983    N        0.37899    0.38492    0.31578    1.000
    N1984    N        0.40112    0.44603    0.30390    1.000
    Si1985   Si       0.38268    0.46210    0.34017    1.000
    N1986    N        0.45462    0.47702    0.29907    1.000
    Si1987   Si       0.42048    0.40695    0.31316    1.000
    Si1988   Si       0.28177    0.30125    0.38102    1.000
    N1989    N        0.29315    0.33617    0.35932    1.000
    N1990    N        0.31314    0.27724    0.40153    1.000
    Si1991   Si       0.29000    0.37977    0.36988    1.000
    N1992    N        0.36863    0.35830    0.37046    1.000
    N1993    N        0.48162    0.34372    0.38143    1.000
    N1994    N        0.42935    0.28987    0.38493    1.000
    Si1995   Si       0.44821    0.32548    0.40134    1.000
    Si1996   Si       0.47332    0.38058    0.36073    1.000
    Si1997   Si       0.45343    0.26040    0.36313    1.000
    Si1998   Si       0.39256    0.27288    0.40531    1.000
    N1999    N        0.31705    0.40780    0.35489    1.000
    N2000    N        0.30244    0.47415    0.38499    1.000
    Si2001   Si       0.35786    0.39746    0.35325    1.000
    N2002    N        0.37895    0.43103    0.37149    1.000
    N2003    N        0.46791    0.41292    0.38994    1.000
    Si2004   Si       0.33264    0.29762    0.43507    1.000
    Si2005   Si       0.27362    0.34752    0.43574    1.000
    N2006    N        0.31492    0.33651    0.43758    1.000
    N2007    N        0.25324    0.31707    0.41038    1.000
    N2008    N        0.28484    0.38431    0.41353    1.000
    N2009    N        0.33769    0.26733    0.46520    1.000
    N2010    N        0.36806    0.37334    0.44329    1.000
    N2011    N        0.37210    0.30848    0.41758    1.000
    N2012    N        0.46572    0.30690    0.43605    1.000
    Si2013   Si       0.45390    0.26425    0.43530    1.000
    Si2014   Si       0.38197    0.34901    0.41202    1.000
    N2015    N        0.42395    0.35679    0.41418    1.000
    N2016    N        0.24784    0.51109    0.45736    1.000
    Si2017   Si       0.32380    0.38328    0.43975    1.000
    Si2018   Si       0.24780    0.40831    0.41840    1.000
    Si2019   Si       0.30384    0.45480    0.42557    1.000
    N2020    N        0.26862    0.43867    0.44351    1.000
    N2021    N        0.31802    0.49072    0.44516    1.000
    N2022    N        0.33624    0.42540    0.42810    1.000
    Si2023   Si       0.35720    0.50806    0.42999    1.000
    N2024    N        0.46215    0.47576    0.42773    1.000
    N2025    N        0.41430    0.42249    0.43895    1.000
    N2026    N        0.38706    0.47610    0.42668    1.000
    Si2027   Si       0.44612    0.39570    0.42392    1.000
    Si2028   Si       0.42380    0.46535    0.44547    1.000
    N2029    N        0.47212    0.38359    0.45532    1.000
    Si2030   Si       0.37598    0.43674    0.41337    1.000
    N2031    N        0.25937    0.34890    0.47652    1.000
    N2032    N        0.27362    0.28326    0.51107    1.000
    Si2033   Si       0.24947    0.31866    0.50406    1.000
    Si2034   Si       0.36108    0.26851    0.49994    1.000
    Si2035   Si       0.24538    0.25689    0.48888    1.000
    N2036    N        0.37817    0.30592    0.50283    1.000
    N2037    N        0.41394    0.36368    0.48956    1.000
    N2038    N        0.46953    0.33168    0.50307    1.000
    Si2039   Si       0.45634    0.37120    0.49273    1.000
    Si2040   Si       0.48032    0.29148    0.49462    1.000
    N2041    N        0.45877    0.25697    0.47839    1.000
    Si2042   Si       0.39555    0.34035    0.52038    1.000
    Si2043   Si       0.27557    0.37967    0.50283    1.000
    Si2044   Si       0.29026    0.50531    0.47393    1.000
    N2045    N        0.31201    0.39023    0.48400    1.000
    Si2046   Si       0.25676    0.44607    0.48519    1.000
    N2047    N        0.28670    0.47305    0.50404    1.000
    Si2048   Si       0.34326    0.39647    0.51414    1.000
    N2049    N        0.24491    0.40891    0.50732    1.000
    N2050    N        0.35976    0.48921    0.51843    1.000
    Si2051   Si       0.39497    0.39559    0.46910    1.000
    N2052    N        0.37495    0.42111    0.49578    1.000
    N2053    N        0.41962    0.47387    0.48832    1.000
    Si2054   Si       0.44490    0.50304    0.50908    1.000
    Si2055   Si       0.39016    0.45683    0.51405    1.000
    N2056    N        0.46855    0.40190    0.51995    1.000
    N2057    N        0.30796    0.31616    0.55753    1.000
    Si2058   Si       0.29989    0.27535    0.54444    1.000
    Si2059   Si       0.34373    0.33912    0.56854    1.000
    Si2060   Si       0.27298    0.34115    0.56262    1.000
    N2061    N        0.36105    0.36363    0.53568    1.000
    N2062    N        0.28782    0.37722    0.54385    1.000
    N2063    N        0.28219    0.25806    0.58008    1.000
    Si2064   Si       0.46880    0.32322    0.54634    1.000
    N2065    N        0.42660    0.33427    0.55150    1.000
    N2066    N        0.37236    0.31225    0.58204    1.000
    N2067    N        0.32939    0.42864    0.54126    1.000
    Si2068   Si       0.31015    0.40372    0.57152    1.000
    N2069    N        0.31467    0.49103    0.57185    1.000
    Si2070   Si       0.31929    0.47131    0.53270    1.000
    N2071    N        0.41717    0.44249    0.54870    1.000
    Si2072   Si       0.46068    0.43764    0.54331    1.000
    N2073    N        0.47109    0.48060    0.53494    1.000
    Si2074   Si       0.47814    0.50369    0.57062    1.000
    N2075    N        0.26312    0.34196    0.60398    1.000
    N2076    N        0.32673    0.36981    0.59532    1.000
    Si2077   Si       0.29780    0.35731    0.63329    1.000
    Si2078   Si       0.24705    0.31687    0.63770    1.000
    N2079    N        0.44019    0.30023    0.61407    1.000
    N2080    N        0.40121    0.36560    0.61255    1.000
    Si2081   Si       0.41191    0.32832    0.59309    1.000
    Si2082   Si       0.37376    0.27436    0.60165    1.000
    Si2083   Si       0.47340    0.30341    0.64188    1.000
    N2084    N        0.37558    0.28464    0.64450    1.000
    Si2085   Si       0.36052    0.38492    0.62453    1.000
    N2086    N        0.27193    0.50228    0.63138    1.000
    Si2087   Si       0.33008    0.46127    0.59999    1.000
    Si2088   Si       0.26326    0.42732    0.62696    1.000
    N2089    N        0.29666    0.43110    0.60039    1.000
    N2090    N        0.36219    0.42574    0.59986    1.000
    N2091    N        0.33191    0.47762    0.64092    1.000
    Si2092   Si       0.40032    0.44607    0.58826    1.000
    N2093    N        0.38341    0.48690    0.58631    1.000
    Si2094   Si       0.46345    0.46052    0.62758    1.000
    N2095    N        0.43217    0.43073    0.61382    1.000
    Si2096   Si       0.42292    0.39501    0.63521    1.000
    N2097    N        0.45032    0.49518    0.60458    1.000
    N2098    N        0.27904    0.32774    0.66632    1.000
    N2099    N        0.33664    0.36195    0.65612    1.000
    Si2100   Si       0.25171    0.36102    0.68245    1.000
    Si2101   Si       0.29944    0.29842    0.69248    1.000
    Si2102   Si       0.35790    0.34654    0.68900    1.000
    N2103    N        0.30300    0.26394    0.66766    1.000
    Si2104   Si       0.34203    0.25726    0.65011    1.000
    N2105    N        0.45296    0.30791    0.67924    1.000
    Si2106   Si       0.40805    0.29511    0.67395    1.000
    Si2107   Si       0.44150    0.34867    0.69186    1.000
    N2108    N        0.40069    0.33688    0.68457    1.000
    N2109    N        0.45400    0.37813    0.66005    1.000
    Si2110   Si       0.36161    0.48513    0.67281    1.000
    N2111    N        0.36041    0.45166    0.70076    1.000
    N2112    N        0.27257    0.38844    0.64720    1.000
    N2113    N        0.40028    0.49911    0.65607    1.000
    Si2114   Si       0.38009    0.41290    0.70013    1.000
    N2115    N        0.38736    0.40478    0.65817    1.000
    N2116    N        0.45586    0.46465    0.67059    1.000
    N2117    N        0.28105    0.29359    0.73049    1.000
    Si2118   Si       0.25798    0.32487    0.74759    1.000
    Si2119   Si       0.35966    0.28104    0.73190    1.000
    Si2120   Si       0.29566    0.25942    0.75228    1.000
    N2121    N        0.27992    0.36168    0.75709    1.000
    N2122    N        0.34059    0.30981    0.70515    1.000
    N2123    N        0.35814    0.37984    0.71846    1.000
    Si2124   Si       0.42981    0.26070    0.73852    1.000
    N2125    N        0.46011    0.36205    0.72955    1.000
    N2126    N        0.39767    0.27315    0.71194    1.000
    Si2127   Si       0.47316    0.32804    0.75636    1.000
    N2128    N        0.43913    0.29976    0.75842    1.000
    N2129    N        0.32842    0.48766    0.75296    1.000
    N2130    N        0.26206    0.50048    0.73167    1.000
    Si2131   Si       0.26826    0.40225    0.74580    1.000
    N2132    N        0.29870    0.43285    0.74051    1.000
    Si2133   Si       0.33882    0.44836    0.73908    1.000
    Si2134   Si       0.28508    0.47303    0.75507    1.000
    N2135    N        0.24963    0.39933    0.70515    1.000
    N2136    N        0.47942    0.42857    0.73124    1.000
    Si2137   Si       0.44724    0.44852    0.70913    1.000
    N2138    N        0.41634    0.41818    0.72059    1.000
    Si2139   Si       0.43509    0.39335    0.75314    1.000
    N2140    N        0.43001    0.48774    0.72407    1.000
    N2141    N        0.34070    0.35704    0.78582    1.000
    Si2142   Si       0.30036    0.36873    0.79373    1.000
    Si2143   Si       0.33277    0.31410    0.79586    1.000
    N2144    N        0.31499    0.27241    0.78875    1.000
    N2145    N        0.23680    0.30526    0.78069    1.000
    N2146    N        0.29255    0.33195    0.81390    1.000
    N2147    N        0.47318    0.34463    0.79617    1.000
    Si2148   Si       0.40760    0.32267    0.77606    1.000
    N2149    N        0.37048    0.30090    0.76853    1.000
    N2150    N        0.40659    0.36542    0.76552    1.000
    Si2151   Si       0.36609    0.38135    0.76095    1.000
    N2152    N        0.41294    0.32342    0.81831    1.000
    Si2153   Si       0.35256    0.50186    0.78840    1.000
    Si2154   Si       0.25452    0.43023    0.80604    1.000
    N2155    N        0.26991    0.47042    0.79447    1.000
    N2156    N        0.29394    0.40832    0.80932    1.000
    N2157    N        0.34586    0.46675    0.81584    1.000
    Si2158   Si       0.43463    0.49997    0.79684    1.000
    N2159    N        0.45634    0.40827    0.78943    1.000
    N2160    N        0.36436    0.42588    0.76608    1.000
    N2161    N        0.47531    0.48142    0.79166    1.000
    Si2162   Si       0.38132    0.45080    0.79834    1.000
    N2163    N        0.39638    0.48822    0.78395    1.000
    N2164    N        0.35040    0.30508    0.83492    1.000
    N2165    N        0.26557    0.26872    0.83048    1.000
    Si2166   Si       0.33951    0.31645    0.87561    1.000
    Si2167   Si       0.25661    0.30832    0.81998    1.000
    Si2168   Si       0.44848    0.34397    0.83241    1.000
    N2169    N        0.47037    0.31216    0.85913    1.000
    Si2170   Si       0.39288    0.29513    0.84553    1.000
    N2171    N        0.44119    0.38270    0.85187    1.000
    N2172    N        0.28831    0.45523    0.86422    1.000
    Si2173   Si       0.31646    0.43923    0.83350    1.000
    N2174    N        0.34391    0.41967    0.86052    1.000
    Si2175   Si       0.25387    0.43057    0.87412    1.000
    Si2176   Si       0.25465    0.50138    0.82267    1.000
    N2177    N        0.40829    0.44078    0.83206    1.000
    Si2178   Si       0.44695    0.42084    0.83181    1.000
    Si2179   Si       0.38129    0.44186    0.86684    1.000
    N2180    N        0.48009    0.44321    0.85448    1.000
    N2181    N        0.25477    0.33970    0.91650    1.000
    Si2182   Si       0.28633    0.31138    0.92483    1.000
    N2183    N        0.31137    0.29007    0.89506    1.000
    N2184    N        0.32988    0.35683    0.88671    1.000
    Si2185   Si       0.33879    0.36510    0.92836    1.000
    Si2186   Si       0.24218    0.36121    0.88116    1.000
    Si2187   Si       0.23849    0.25719    0.91729    1.000
    N2188    N        0.47248    0.28631    0.92491    1.000
    N2189    N        0.43978    0.35176    0.90684    1.000
    Si2190   Si       0.47056    0.32245    0.90193    1.000
    Si2191   Si       0.40287    0.33233    0.91898    1.000
    N2192    N        0.38385    0.31433    0.88485    1.000
    N2193    N        0.32090    0.40648    0.92656    1.000
    Si2194   Si       0.35834    0.50181    0.92004    1.000
    Si2195   Si       0.31516    0.39617    0.88201    1.000
    Si2196   Si       0.28691    0.49654    0.87933    1.000
    N2197    N        0.27207    0.39158    0.87534    1.000
    Si2198   Si       0.49060    0.44373    0.89829    1.000
    N2199    N        0.40521    0.42615    0.89888    1.000
    Si2200   Si       0.40094    0.45163    0.93607    1.000
    N2201    N        0.37998    0.48341    0.88519    1.000
    Si2202   Si       0.45861    0.50701    0.93077    1.000
    N2203    N        0.46437    0.41479    0.91919    1.000
    Si2204   Si       0.43571    0.39558    0.89391    1.000
    N2205    N        0.31371    0.33739    0.94842    1.000
    Si2206   Si       0.26826    0.27039    0.98718    1.000
    N2207    N        0.26330    0.27969    0.94600    1.000
    Si2208   Si       0.29821    0.33126    0.98861    1.000
    N2209    N        0.25329    0.34217    0.98904    1.000
    Si2210   Si       0.44735    0.28639    0.96084    1.000
    N2211    N        0.40957    0.30127    0.94725    1.000
    N2212    N        0.44260    0.37455    0.97482    1.000
    Si2213   Si       0.39287    0.26020    0.94902    1.000
    N2214    N        0.38051    0.36552    0.93561    1.000
    N2215    N        0.28227    0.46024    0.95872    1.000
    Si2216   Si       0.24252    0.47174    0.94239    1.000
    N2217    N        0.35841    0.46636    0.94569    1.000
    Si2218   Si       0.32107    0.44360    0.94950    1.000
    N2219    N        0.33104    0.43144    0.99266    1.000
    Si2220   Si       0.47511    0.39878    0.95971    1.000
    N2221    N        0.47403    0.43605    0.98063    1.000
    Si2222   Si       0.43649    0.45797    0.98827    1.000
    Si2223   Si       0.36700    0.45478    0.98795    1.000
    N2224    N        0.40181    0.43136    0.97610    1.000
    N2225    N        0.42976    0.47969    0.95087    1.000
    Si2226   Si       0.39962    0.38483    0.97283    1.000
    N2227    N        0.28030    0.55522    0.02757    1.000
    Si2228   Si       0.28137    0.59861    0.01113    1.000
    Si2229   Si       0.35570    0.60272    0.00686    1.000
    N2230    N        0.27990    0.62473    0.04582    1.000
    Si2231   Si       0.28289    0.52035    0.00193    1.000
    N2232    N        0.34877    0.59759    0.04945    1.000
    N2233    N        0.41823    0.60284    0.04341    1.000
    Si2234   Si       0.42000    0.61963    0.00422    1.000
    N2235    N        0.37563    0.56344    0.00399    1.000
    Si2236   Si       0.39028    0.56947    0.04723    1.000
    Si2237   Si       0.35696    0.72031    0.02029    1.000
    N2238    N        0.32601    0.75333    0.00281    1.000
    N2239    N        0.24813    0.69246    0.05156    1.000
    N2240    N        0.26516    0.73535    0.00250    1.000
    Si2241   Si       0.24618    0.64935    0.05633    1.000
    N2242    N        0.44396    0.65748    0.01003    1.000
    Si2243   Si       0.46891    0.73681    0.01097    1.000
    N2244    N        0.44043    0.72244    0.04263    1.000
    Si2245   Si       0.48672    0.66664    0.00459    1.000
    Si2246   Si       0.41982    0.68969    0.02696    1.000
    N2247    N        0.29896    0.58025    0.09246    1.000
    Si2248   Si       0.29246    0.54296    0.06980    1.000
    Si2249   Si       0.31494    0.61598    0.06988    1.000
    N2250    N        0.25812    0.51883    0.08577    1.000
    N2251    N        0.32876    0.52438    0.07886    1.000
    Si2252   Si       0.41541    0.53647    0.10509    1.000
    N2253    N        0.40392    0.53178    0.06132    1.000
    N2254    N        0.44912    0.56441    0.10758    1.000
    Si2255   Si       0.48386    0.55823    0.08169    1.000
    N2256    N        0.47759    0.52485    0.05753    1.000
    N2257    N        0.41933    0.63327    0.10883    1.000
    N2258    N        0.49083    0.59615    0.06192    1.000
    N2259    N        0.38220    0.56386    0.11580    1.000
    N2260    N        0.32957    0.64693    0.09263    1.000
    N2261    N        0.35325    0.71420    0.06227    1.000
    Si2262   Si       0.36222    0.72824    0.10203    1.000
    Si2263   Si       0.36068    0.67364    0.07956    1.000
    N2264    N        0.39357    0.75851    0.10544    1.000
    N2265    N        0.46897    0.66423    0.07394    1.000
    Si2266   Si       0.46525    0.70971    0.07772    1.000
    Si2267   Si       0.42971    0.63887    0.06674    1.000
    N2268    N        0.39612    0.66552    0.05488    1.000
    N2269    N        0.32023    0.55248    0.14948    1.000
    Si2270   Si       0.28970    0.58182    0.13501    1.000
    N2271    N        0.30327    0.61984    0.15317    1.000
    N2272    N        0.24837    0.56558    0.14299    1.000
    Si2273   Si       0.34579    0.53958    0.11776    1.000
    N2274    N        0.36827    0.62606    0.14697    1.000
    N2275    N        0.42387    0.59299    0.16544    1.000
    Si2276   Si       0.46160    0.58536    0.14311    1.000
    Si2277   Si       0.39935    0.60208    0.13032    1.000
    N2278    N        0.48508    0.55728    0.16701    1.000
    Si2279   Si       0.32136    0.72341    0.16776    1.000
    Si2280   Si       0.33057    0.64967    0.13573    1.000
    Si2281   Si       0.26640    0.69850    0.15709    1.000
    N2282    N        0.24944    0.72027    0.12358    1.000
    N2283    N        0.33213    0.74583    0.12988    1.000
    N2284    N        0.30831    0.68509    0.14817    1.000
    N2285    N        0.42275    0.66696    0.17015    1.000
    N2286    N        0.37651    0.68919    0.11725    1.000
    N2287    N        0.44025    0.70865    0.11195    1.000
    Si2288   Si       0.42375    0.74317    0.13485    1.000
    Si2289   Si       0.41508    0.67447    0.12732    1.000
    Si2290   Si       0.32268    0.55636    0.19407    1.000
    N2291    N        0.34726    0.58958    0.20454    1.000
    N2292    N        0.28114    0.56127    0.20487    1.000
    Si2293   Si       0.25816    0.52620    0.19308    1.000
    Si2294   Si       0.26252    0.59999    0.21286    1.000
    N2295    N        0.33109    0.52069    0.21611    1.000
    Si2296   Si       0.32398    0.62461    0.19194    1.000
    N2297    N        0.29254    0.63009    0.21888    1.000
    Si2298   Si       0.43706    0.60122    0.20450    1.000
    N2299    N        0.40669    0.62373    0.22462    1.000
    N2300    N        0.48071    0.61615    0.19944    1.000
    N2301    N        0.45129    0.56660    0.22554    1.000
    N2302    N        0.35318    0.65734    0.19767    1.000
    N2303    N        0.28235    0.72883    0.18650    1.000
    N2304    N        0.34954    0.72888    0.20168    1.000
    Si2305   Si       0.35811    0.69056    0.22453    1.000
    Si2306   Si       0.26344    0.72486    0.22639    1.000
    N2307    N        0.24127    0.67106    0.17668    1.000
    Si2308   Si       0.39016    0.63935    0.18523    1.000
    N2309    N        0.41591    0.73057    0.17775    1.000
    Si2310   Si       0.38631    0.75355    0.20055    1.000
    N2311    N        0.47879    0.72278    0.18965    1.000
    Si2312   Si       0.44113    0.69890    0.19575    1.000
    N2313    N        0.46171    0.67515    0.23039    1.000
    N2314    N        0.28394    0.53555    0.27892    1.000
    Si2315   Si       0.30132    0.51214    0.24548    1.000
    Si2316   Si       0.24693    0.61532    0.28997    1.000
    N2317    N        0.36266    0.59805    0.27704    1.000
    Si2318   Si       0.45123    0.53466    0.25443    1.000
    Si2319   Si       0.38620    0.53003    0.27910    1.000
    Si2320   Si       0.37562    0.59027    0.23695    1.000
    N2321    N        0.38597    0.54842    0.23740    1.000
    Si2322   Si       0.29213    0.65798    0.25050    1.000
    N2323    N        0.32853    0.68231    0.25600    1.000
    N2324    N        0.26046    0.68540    0.24362    1.000
    N2325    N        0.28670    0.63215    0.28712    1.000
    N2326    N        0.28015    0.75810    0.25135    1.000
    N2327    N        0.44789    0.73079    0.26783    1.000
    N2328    N        0.42876    0.65221    0.28832    1.000
    Si2329   Si       0.42228    0.65918    0.24740    1.000
    N2330    N        0.39991    0.69522    0.23503    1.000
    Si2331   Si       0.40543    0.72820    0.26091    1.000
    Si2332   Si       0.48132    0.70593    0.25599    1.000
    N2333    N        0.31782    0.59306    0.33673    1.000
    Si2334   Si       0.35357    0.57820    0.31541    1.000
    N2335    N        0.34897    0.53811    0.29998    1.000
    N2336    N        0.24981    0.58118    0.31618    1.000
    N2337    N        0.29359    0.52981    0.34602    1.000
    Si2338   Si       0.24387    0.54531    0.29328    1.000
    Si2339   Si       0.31347    0.51503    0.30540    1.000
    Si2340   Si       0.27991    0.57478    0.34800    1.000
    N2341    N        0.38362    0.57015    0.34535    1.000
    N2342    N        0.42816    0.53607    0.29054    1.000
    Si2343   Si       0.31092    0.63360    0.32382    1.000
    N2344    N        0.30643    0.71744    0.31172    1.000
    N2345    N        0.34664    0.66082    0.32286    1.000
    Si2346   Si       0.33987    0.69448    0.29556    1.000
    Si2347   Si       0.29474    0.75541    0.29310    1.000
    Si2348   Si       0.28954    0.70038    0.34720    1.000
    N2349    N        0.44133    0.70333    0.33257    1.000
    N2350    N        0.48418    0.75460    0.32223    1.000
    Si2351   Si       0.48471    0.71191    0.32745    1.000
    N2352    N        0.37699    0.71698    0.29341    1.000
    N2353    N        0.47373    0.64406    0.34310    1.000
    Si2354   Si       0.40535    0.72647    0.32776    1.000
    Si2355   Si       0.43632    0.66098    0.32997    1.000
    N2356    N        0.26673    0.59950    0.38362    1.000
    N2357    N        0.35044    0.52540    0.39155    1.000
    Si2358   Si       0.30850    0.51740    0.38611    1.000
    N2359    N        0.44711    0.58694    0.36628    1.000
    Si2360   Si       0.45445    0.54825    0.38290    1.000
    Si2361   Si       0.40540    0.60015    0.36504    1.000
    Si2362   Si       0.47499    0.62083    0.37732    1.000
    Si2363   Si       0.38736    0.53416    0.36961    1.000
    N2364    N        0.41626    0.53842    0.40049    1.000
    N2365    N        0.39035    0.59689    0.40533    1.000
    N2366    N        0.46772    0.52091    0.35204    1.000
    Si2367   Si       0.32545    0.75220    0.39624    1.000
    Si2368   Si       0.25998    0.64190    0.38021    1.000
    N2369    N        0.34685    0.65362    0.39298    1.000
    N2370    N        0.31259    0.71145    0.38467    1.000
    N2371    N        0.25052    0.71807    0.35607    1.000
    Si2372   Si       0.26160    0.75987    0.36043    1.000
    N2373    N        0.28586    0.65896    0.34976    1.000
    Si2374   Si       0.36963    0.66703    0.35967    1.000
    Si2375   Si       0.48564    0.72098    0.40410    1.000
    N2376    N        0.44531    0.74002    0.40245    1.000
    Si2377   Si       0.40013    0.72646    0.39842    1.000
    N2378    N        0.40525    0.64227    0.35436    1.000
    N2379    N        0.38628    0.70691    0.36321    1.000
    N2380    N        0.32511    0.60239    0.42889    1.000
    N2381    N        0.26727    0.58976    0.45862    1.000
    Si2382   Si       0.28836    0.58577    0.42107    1.000
    Si2383   Si       0.24456    0.52948    0.41921    1.000
    Si2384   Si       0.36097    0.62352    0.42043    1.000
    N2385    N        0.28502    0.54347    0.41047    1.000
    N2386    N        0.42883    0.58581    0.45615    1.000
    Si2387   Si       0.39981    0.56259    0.43277    1.000
    N2388    N        0.37081    0.54044    0.45951    1.000
    Si2389   Si       0.42508    0.62649    0.44188    1.000
    Si2390   Si       0.48162    0.51332    0.44360    1.000
    N2391    N        0.48542    0.54318    0.41205    1.000
    N2392    N        0.27548    0.66043    0.41711    1.000
    Si2393   Si       0.24980    0.66419    0.45218    1.000
    N2394    N        0.33429    0.69412    0.45222    1.000
    Si2395   Si       0.31470    0.67814    0.41232    1.000
    N2396    N        0.24461    0.70894    0.45513    1.000
    N2397    N        0.45891    0.63640    0.41405    1.000
    Si2398   Si       0.37538    0.68175    0.46227    1.000
    N2399    N        0.39641    0.71152    0.43918    1.000
    N2400    N        0.38646    0.64321    0.44775    1.000
    Si2401   Si       0.48270    0.65370    0.44810    1.000
    N2402    N        0.49020    0.69551    0.43946    1.000
    N2403    N        0.32200    0.60465    0.50712    1.000
    N2404    N        0.30779    0.54100    0.49112    1.000
    Si2405   Si       0.35017    0.53147    0.49752    1.000
    Si2406   Si       0.28862    0.58059    0.49521    1.000
    N2407    N        0.25693    0.58219    0.52456    1.000
    N2408    N        0.46110    0.53052    0.47725    1.000
    Si2409   Si       0.45800    0.57329    0.48437    1.000
    N2410    N        0.44444    0.58604    0.52428    1.000
    N2411    N        0.27006    0.65698    0.48933    1.000
    Si2412   Si       0.25721    0.73484    0.48834    1.000
    N2413    N        0.30006    0.73182    0.50431    1.000
    Si2414   Si       0.30386    0.64511    0.51348    1.000
    Si2415   Si       0.32763    0.73358    0.46877    1.000
    N2416    N        0.36236    0.74853    0.48716    1.000
    N2417    N        0.43241    0.72659    0.49960    1.000
    N2418    N        0.48631    0.69008    0.51066    1.000
    Si2419   Si       0.43674    0.68165    0.50230    1.000
    N2420    N        0.39191    0.67759    0.50215    1.000
    Si2421   Si       0.40394    0.74325    0.47022    1.000
    N2422    N        0.44720    0.64891    0.47476    1.000
    N2423    N        0.32037    0.59105    0.57201    1.000
    Si2424   Si       0.34895    0.59199    0.53868    1.000
    Si2425   Si       0.27591    0.59566    0.56446    1.000
    N2426    N        0.35880    0.55060    0.53517    1.000
    Si2427   Si       0.43398    0.55988    0.56183    1.000
    N2428    N        0.38209    0.61962    0.53920    1.000
    Si2429   Si       0.42615    0.62082    0.54446    1.000
    N2430    N        0.47698    0.54994    0.56453    1.000
    N2431    N        0.41922    0.52487    0.53803    1.000
    Si2432   Si       0.37947    0.51539    0.55348    1.000
    N2433    N        0.43460    0.60268    0.58457    1.000
    N2434    N        0.27803    0.63746    0.54695    1.000
    N2435    N        0.29046    0.71128    0.57282    1.000
    Si2436   Si       0.31854    0.71351    0.53889    1.000
    N2437    N        0.35372    0.73696    0.55333    1.000
    Si2438   Si       0.25922    0.73989    0.56123    1.000
    N2439    N        0.33122    0.67291    0.52900    1.000
    Si2440   Si       0.24252    0.64989    0.52473    1.000
    N2441    N        0.43853    0.66353    0.54384    1.000
    N2442    N        0.48468    0.69333    0.58073    1.000
    N2443    N        0.37313    0.67557    0.58162    1.000
    Si2444   Si       0.42988    0.74485    0.53807    1.000
    Si2445   Si       0.37295    0.66091    0.53912    1.000
    N2446    N        0.41808    0.72438    0.57358    1.000
    Si2447   Si       0.43784    0.68736    0.58355    1.000
    Si2448   Si       0.32805    0.58291    0.61310    1.000
    N2449    N        0.32551    0.53958    0.62062    1.000
    Si2450   Si       0.29229    0.52083    0.59669    1.000
    N2451    N        0.29853    0.60263    0.63620    1.000
    N2452    N        0.26869    0.55174    0.58080    1.000
    N2453    N        0.36441    0.60808    0.61692    1.000
    Si2454   Si       0.40472    0.59062    0.61569    1.000
    N2455    N        0.40683    0.55125    0.59945    1.000
    Si2456   Si       0.47738    0.60750    0.59619    1.000
    Si2457   Si       0.41073    0.50919    0.61498    1.000
    N2458    N        0.32025    0.66721    0.62835    1.000
    N2459    N        0.25801    0.66727    0.62496    1.000
    Si2460   Si       0.28956    0.69509    0.61224    1.000
    Si2461   Si       0.33603    0.75195    0.63882    1.000
    Si2462   Si       0.36006    0.65344    0.61823    1.000
    N2463    N        0.30034    0.72789    0.64317    1.000
    N2464    N        0.48642    0.75611    0.61498    1.000
    N2465    N        0.43486    0.67200    0.62201    1.000
    N2466    N        0.36952    0.72663    0.62660    1.000
    Si2467   Si       0.37546    0.71724    0.58572    1.000
    N2468    N        0.28229    0.54460    0.67596    1.000
    N2469    N        0.25246    0.61304    0.67379    1.000
    Si2470   Si       0.30852    0.51500    0.65464    1.000
    N2471    N        0.33721    0.51697    0.68878    1.000
    Si2472   Si       0.26408    0.57606    0.65472    1.000
    N2473    N        0.46107    0.53781    0.67001    1.000
    Si2474   Si       0.43445    0.57267    0.68399    1.000
    N2475    N        0.42423    0.60327    0.65246    1.000
    Si2476   Si       0.43386    0.50550    0.68326    1.000
    N2477    N        0.41228    0.54320    0.70561    1.000
    Si2478   Si       0.28190    0.63961    0.65194    1.000
    N2479    N        0.29130    0.66403    0.68746    1.000
    Si2480   Si       0.30719    0.70289    0.67878    1.000
    N2481    N        0.34512    0.71061    0.69555    1.000
    Si2482   Si       0.27264    0.75518    0.66361    1.000
    Si2483   Si       0.37924    0.70839    0.66449    1.000
    N2484    N        0.44041    0.66119    0.69141    1.000
    N2485    N        0.41012    0.72716    0.68749    1.000
    Si2486   Si       0.42202    0.64742    0.65497    1.000
    N2487    N        0.38089    0.66308    0.65550    1.000
    N2488    N        0.30237    0.55432    0.73973    1.000
    Si2489   Si       0.33489    0.52532    0.73068    1.000
    N2490    N        0.27732    0.61887    0.73925    1.000
    Si2491   Si       0.26822    0.54005    0.71576    1.000
    Si2492   Si       0.24333    0.60734    0.71634    1.000
    N2493    N        0.36887    0.53919    0.75357    1.000
    Si2494   Si       0.47060    0.57120    0.74919    1.000
    Si2495   Si       0.40731    0.52201    0.74509    1.000
    N2496    N        0.45685    0.59404    0.71379    1.000
    Si2497   Si       0.33006    0.75257    0.71716    1.000
    N2498    N        0.33474    0.66721    0.74321    1.000
    Si2499   Si       0.26234    0.73107    0.73958    1.000
    Si2500   Si       0.29295    0.65799    0.72959    1.000
    N2501    N        0.27014    0.68932    0.75070    1.000
    N2502    N        0.35384    0.73985    0.75467    1.000
    N2503    N        0.28740    0.73754    0.70414    1.000
    Si2504   Si       0.36084    0.70108    0.73606    1.000
    N2505    N        0.40316    0.69178    0.74616    1.000
    N2506    N        0.46993    0.71749    0.72406    1.000
    Si2507   Si       0.43258    0.69882    0.71432    1.000
    N2508    N        0.47038    0.65693    0.75094    1.000
    Si2509   Si       0.47091    0.63553    0.71328    1.000
    N2510    N        0.27346    0.57676    0.79940    1.000
    N2511    N        0.33541    0.53885    0.80644    1.000
    N2512    N        0.33792    0.60308    0.77004    1.000
    Si2513   Si       0.36094    0.56894    0.78453    1.000
    Si2514   Si       0.29882    0.58909    0.76424    1.000
    N2515    N        0.45950    0.59466    0.78480    1.000
    N2516    N        0.43764    0.53851    0.77277    1.000
    N2517    N        0.39304    0.57436    0.81142    1.000
    Si2518   Si       0.43545    0.56494    0.80929    1.000
    Si2519   Si       0.24819    0.74696    0.80545    1.000
    Si2520   Si       0.33997    0.64576    0.78002    1.000
    N2521    N        0.30200    0.65036    0.80329    1.000
    Si2522   Si       0.26628    0.67057    0.79078    1.000
    N2523    N        0.25587    0.70352    0.81871    1.000
    Si2524   Si       0.36877    0.75176    0.79375    1.000
    N2525    N        0.40177    0.72481    0.80726    1.000
    Si2526   Si       0.40887    0.68426    0.78959    1.000
    N2527    N        0.43832    0.66056    0.81116    1.000
    N2528    N        0.37281    0.66082    0.80608    1.000
    Si2529   Si       0.46710    0.63669    0.78926    1.000
    N2530    N        0.32894    0.59433    0.84106    1.000
    N2531    N        0.28341    0.52524    0.84569    1.000
    Si2532   Si       0.30383    0.56014    0.82797    1.000
    N2533    N        0.27248    0.63044    0.85694    1.000
    Si2534   Si       0.31314    0.63427    0.84164    1.000
    Si2535   Si       0.37272    0.58808    0.85080    1.000
    Si2536   Si       0.46242    0.53552    0.86509    1.000
    N2537    N        0.45585    0.57487    0.84928    1.000
    N2538    N        0.40070    0.62059    0.86152    1.000
    Si2539   Si       0.40379    0.51491    0.87084    1.000
    N2540    N        0.38231    0.55369    0.87785    1.000
    N2541    N        0.43136    0.51716    0.83512    1.000
    Si2542   Si       0.43996    0.60523    0.87728    1.000
    N2543    N        0.34191    0.65066    0.86867    1.000
    N2544    N        0.33725    0.74918    0.82498    1.000
    Si2545   Si       0.24017    0.69371    0.85764    1.000
    N2546    N        0.45775    0.70312    0.86312    1.000
    Si2547   Si       0.38120    0.65865    0.84888    1.000
    N2548    N        0.39396    0.69482    0.87162    1.000
    Si2549   Si       0.46785    0.66528    0.84428    1.000
    Si2550   Si       0.42013    0.72565    0.85045    1.000
    N2551    N        0.35616    0.59874    0.92119    1.000
    N2552    N        0.28618    0.56702    0.93354    1.000
    N2553    N        0.31786    0.50711    0.90851    1.000
    N2554    N        0.30288    0.63127    0.92178    1.000
    N2555    N        0.25603    0.50464    0.90995    1.000
    N2556    N        0.43138    0.58673    0.91501    1.000
    Si2557   Si       0.38931    0.56837    0.91813    1.000
    N2558    N        0.43828    0.51979    0.89688    1.000
    Si2559   Si       0.29139    0.71920    0.90587    1.000
    N2560    N        0.26901    0.68723    0.88819    1.000
    N2561    N        0.33123    0.72529    0.89032    1.000
    Si2562   Si       0.34459    0.64048    0.91058    1.000
    Si2563   Si       0.26768    0.64322    0.89842    1.000
    N2564    N        0.36271    0.67211    0.93477    1.000
    N2565    N        0.38674    0.73681    0.93198    1.000
    Si2566   Si       0.47685    0.73330    0.88552    1.000
    Si2567   Si       0.36912    0.70425    0.90659    1.000
    N2568    N        0.47026    0.63787    0.87829    1.000
    N2569    N        0.31776    0.52239    0.97489    1.000
    N2570    N        0.25047    0.60886    0.98172    1.000
    N2571    N        0.25284    0.51853    0.96879    1.000
    N2572    N        0.31891    0.60140    0.98577    1.000
    Si2573   Si       0.25142    0.58914    0.94367    1.000
    Si2574   Si       0.31740    0.59665    0.94278    1.000
    Si2575   Si       0.28809    0.52427    0.93989    1.000
    Si2576   Si       0.36304    0.52729    0.98285    1.000
    N2577    N        0.47804    0.53932    0.94996    1.000
    N2578    N        0.44548    0.59314    0.98047    1.000
    Si2579   Si       0.46461    0.58309    0.94373    1.000
    N2580    N        0.37792    0.53371    0.94192    1.000
    N2581    N        0.38183    0.63307    0.99078    1.000
    Si2582   Si       0.25873    0.74884    0.95233    1.000
    Si2583   Si       0.30282    0.71740    0.98873    1.000
    N2584    N        0.28744    0.71624    0.94893    1.000
    N2585    N        0.33179    0.68781    0.99880    1.000
    Si2586   Si       0.36623    0.67152    0.97622    1.000
    N2587    N        0.44761    0.73417    0.97220    1.000
    Si2588   Si       0.40504    0.73543    0.97172    1.000
    N2589    N        0.39020    0.70300    0.99648    1.000
    N2590    N        0.35028    0.82057    0.01481    1.000
    N2591    N        0.28668    0.79704    0.04119    1.000
    Si2592   Si       0.28480    0.77392    0.00507    1.000
    Si2593   Si       0.32286    0.81617    0.05263    1.000
    N2594    N        0.46144    0.78062    0.02548    1.000
    Si2595   Si       0.38576    0.84342    0.03176    1.000
    Si2596   Si       0.42078    0.79362    0.01614    1.000
    N2597    N        0.40462    0.80673    0.05293    1.000
    N2598    N        0.41590    0.83154    0.99542    1.000
    Si2599   Si       0.29977    0.93578    0.04552    1.000
    N2600    N        0.26756    0.90607    0.04119    1.000
    N2601    N        0.29790    0.95757    0.00845    1.000
    N2602    N        0.33794    0.91546    0.04352    1.000
    Si2603   Si       0.33251    0.98285    0.99868    1.000
    N2604    N        0.32892    0.00795    0.03363    1.000
    N2605    N        0.40910    0.94304    0.04168    1.000
    Si2606   Si       0.41800    0.98654    0.04822    1.000
    N2607    N        0.46201    0.90381    0.01845    1.000
    Si2608   Si       0.37280    0.92444    0.01772    1.000
    Si2609   Si       0.42755    0.90278    0.04228    1.000
    N2610    N        0.39445    0.88614    0.01629    1.000
    N2611    N        0.34302    0.79791    0.08800    1.000
    Si2612   Si       0.25383    0.80432    0.07025    1.000
    Si2613   Si       0.26856    0.87479    0.06964    1.000
    N2614    N        0.30865    0.85584    0.06405    1.000
    N2615    N        0.27508    0.79182    0.11006    1.000
    Si2616   Si       0.33971    0.88378    0.07426    1.000
    N2617    N        0.47359    0.81700    0.09211    1.000
    N2618    N        0.37465    0.86003    0.07166    1.000
    Si2619   Si       0.38542    0.79774    0.09038    1.000
    Si2620   Si       0.40613    0.86535    0.10181    1.000
    Si2621   Si       0.48058    0.86024    0.08639    1.000
    N2622    N        0.44044    0.87835    0.07770    1.000
    Si2623   Si       0.48305    0.78548    0.06318    1.000
    N2624    N        0.29742    0.94927    0.08766    1.000
    N2625    N        0.26125    0.00369    0.07111    1.000
    N2626    N        0.26508    0.89240    0.10790    1.000
    Si2627   Si       0.27467    0.98237    0.10565    1.000
    N2628    N        0.38704    0.99966    0.07581    1.000
    N2629    N        0.45563    0.99197    0.06881    1.000
    Si2630   Si       0.45674    0.00338    0.10951    1.000
    N2631    N        0.31182    0.80844    0.15541    1.000
    Si2632   Si       0.26762    0.81252    0.15467    1.000
    N2633    N        0.25186    0.85169    0.15905    1.000
    Si2634   Si       0.31766    0.78697    0.12044    1.000
    Si2635   Si       0.24245    0.76164    0.11651    1.000
    N2636    N        0.44704    0.84702    0.15739    1.000
    N2637    N        0.45227    0.77330    0.14184    1.000
    Si2638   Si       0.44970    0.81423    0.12745    1.000
    N2639    N        0.40583    0.82247    0.11898    1.000
    Si2640   Si       0.40549    0.82670    0.17065    1.000
    Si2641   Si       0.48298    0.76258    0.16953    1.000
    N2642    N        0.38062    0.78846    0.17580    1.000
    N2643    N        0.29316    0.00574    0.13548    1.000
    Si2644   Si       0.25296    0.94995    0.16301    1.000
    N2645    N        0.29045    0.92800    0.15877    1.000
    Si2646   Si       0.29767    0.91746    0.11881    1.000
    N2647    N        0.35962    0.95780    0.13344    1.000
    N2648    N        0.33431    0.89664    0.11438    1.000
    Si2649   Si       0.36456    0.91475    0.14110    1.000
    N2650    N        0.42475    0.97711    0.12703    1.000
    N2651    N        0.46471    0.92518    0.15219    1.000
    N2652    N        0.48392    0.98807    0.14038    1.000
    Si2653   Si       0.45162    0.96682    0.15905    1.000
    N2654    N        0.40183    0.89549    0.13364    1.000
    Si2655   Si       0.43749    0.89140    0.16073    1.000
    Si2656   Si       0.38455    0.98889    0.11848    1.000
    N2657    N        0.26133    0.81053    0.20315    1.000
    Si2658   Si       0.34271    0.81169    0.18367    1.000
    Si2659   Si       0.25703    0.85711    0.20163    1.000
    N2660    N        0.33358    0.80324    0.22378    1.000
    N2661    N        0.29355    0.87903    0.20866    1.000
    N2662    N        0.36782    0.84816    0.18060    1.000
    N2663    N        0.42426    0.82116    0.21069    1.000
    Si2664   Si       0.46387    0.83388    0.19540    1.000
    N2665    N        0.47685    0.87218    0.21140    1.000
    Si2666   Si       0.37354    0.88279    0.20507    1.000
    N2667    N        0.35029    0.91060    0.18174    1.000
    N2668    N        0.26437    0.98123    0.18897    1.000
    Si2669   Si       0.30984    0.91687    0.19616    1.000
    Si2670   Si       0.27413    0.96718    0.22865    1.000
    N2671    N        0.31312    0.95104    0.22497    1.000
    N2672    N        0.43877    0.98675    0.19486    1.000
    N2673    N        0.41609    0.89540    0.19889    1.000
    N2674    N        0.28795    0.83328    0.25865    1.000
    Si2675   Si       0.35626    0.78809    0.25876    1.000
    Si2676   Si       0.31335    0.86523    0.24503    1.000
    N2677    N        0.35637    0.87335    0.24330    1.000
    Si2678   Si       0.29129    0.79952    0.23439    1.000
    N2679    N        0.45849    0.79790    0.26770    1.000
    Si2680   Si       0.41936    0.80359    0.24899    1.000
    Si2681   Si       0.38414    0.86243    0.27322    1.000
    N2682    N        0.38629    0.81834    0.27586    1.000
    N2683    N        0.39320    0.76709    0.24142    1.000
    N2684    N        0.42520    0.87259    0.26603    1.000
    N2685    N        0.30227    0.88613    0.28282    1.000
    N2686    N        0.26553    0.99527    0.25822    1.000
    Si2687   Si       0.34533    0.96382    0.25152    1.000
    N2688    N        0.33649    0.00740    0.25691    1.000
    Si2689   Si       0.42762    0.96756    0.23181    1.000
    Si2690   Si       0.44313    0.89419    0.23159    1.000
    N2691    N        0.38525    0.95768    0.23718    1.000
    N2692    N        0.45640    0.93484    0.24132    1.000
    N2693    N        0.43598    0.00599    0.25353    1.000
    N2694    N        0.30312    0.83792    0.33214    1.000
    Si2695   Si       0.32502    0.79989    0.33530    1.000
    N2696    N        0.25847    0.76830    0.31492    1.000
    Si2697   Si       0.27864    0.85247    0.29628    1.000
    N2698    N        0.33009    0.78153    0.29459    1.000
    N2699    N        0.23677    0.86022    0.30246    1.000
    N2700    N        0.41728    0.76657    0.31698    1.000
    N2701    N        0.42565    0.83886    0.32991    1.000
    Si2702   Si       0.39735    0.80686    0.31835    1.000
    Si2703   Si       0.44740    0.86765    0.30303    1.000
    Si2704   Si       0.45359    0.76492    0.29455    1.000
    N2705    N        0.37037    0.87923    0.31081    1.000
    N2706    N        0.48715    0.85408    0.28801    1.000
    Si2707   Si       0.33306    0.90491    0.30520    1.000
    Si2708   Si       0.24501    0.98033    0.33932    1.000
    N2709    N        0.34542    0.94348    0.29168    1.000
    N2710    N        0.32984    0.90618    0.34980    1.000
    N2711    N        0.45409    0.96380    0.31235    1.000
    N2712    N        0.45702    0.89879    0.33707    1.000
    N2713    N        0.38872    0.99420    0.30841    1.000
    Si2714   Si       0.36691    0.96104    0.32486    1.000
    N2715    N        0.39486    0.93421    0.34526    1.000
    Si2716   Si       0.43204    0.99912    0.29761    1.000
    Si2717   Si       0.43836    0.93706    0.34509    1.000
    N2718    N        0.30360    0.77496    0.36437    1.000
    Si2719   Si       0.30972    0.86787    0.36237    1.000
    N2720    N        0.32604    0.86394    0.40189    1.000
    N2721    N        0.24276    0.76980    0.40205    1.000
    N2722    N        0.26739    0.87793    0.37320    1.000
    Si2723   Si       0.25350    0.84850    0.40305    1.000
    Si2724   Si       0.42643    0.84695    0.37199    1.000
    N2725    N        0.42360    0.80396    0.38718    1.000
    N2726    N        0.46602    0.85883    0.39078    1.000
    Si2727   Si       0.38019    0.79809    0.38936    1.000
    N2728    N        0.39070    0.87130    0.38119    1.000
    N2729    N        0.36666    0.80560    0.34902    1.000
    N2730    N        0.36828    0.75898    0.39868    1.000
    Si2731   Si       0.24483    0.91698    0.37943    1.000
    Si2732   Si       0.31085    0.94356    0.36645    1.000
    N2733    N        0.26860    0.94779    0.35947    1.000
    N2734    N        0.24916    0.99681    0.40383    1.000
    N2735    N        0.33416    0.97600    0.35153    1.000
    Si2736   Si       0.47853    0.98824    0.37860    1.000
    Si2737   Si       0.37454    0.89694    0.35018    1.000
    N2738    N        0.44945    0.95433    0.38557    1.000
    N2739    N        0.27519    0.82498    0.43226    1.000
    Si2740   Si       0.27281    0.78084    0.43386    1.000
    N2741    N        0.30805    0.75557    0.43635    1.000
    Si2742   Si       0.36574    0.86429    0.41632    1.000
    N2743    N        0.37032    0.82157    0.42532    1.000
    Si2744   Si       0.46916    0.84543    0.43143    1.000
    N2745    N        0.41606    0.77912    0.45267    1.000
    N2746    N        0.42878    0.84665    0.44723    1.000
    Si2747   Si       0.44333    0.78246    0.41863    1.000
    N2748    N        0.47909    0.80219    0.43070    1.000
    Si2749   Si       0.39703    0.81935    0.45920    1.000
    N2750    N        0.28168    0.88886    0.45098    1.000
    Si2751   Si       0.31481    0.89954    0.42809    1.000
    Si2752   Si       0.27342    0.96234    0.42011    1.000
    N2753    N        0.28188    0.97676    0.46022    1.000
    N2754    N        0.35523    0.89508    0.44611    1.000
    Si2755   Si       0.24247    0.90472    0.44927    1.000
    N2756    N        0.30624    0.93761    0.41042    1.000
    N2757    N        0.23734    0.93577    0.41809    1.000
    N2758    N        0.47049    0.94231    0.44735    1.000
    N2759    N        0.41121    0.93494    0.45672    1.000
    Si2760   Si       0.43445    0.95769    0.42616    1.000
    N2761    N        0.40967    0.99507    0.42839    1.000
    Si2762   Si       0.37646    0.99368    0.45629    1.000
    N2763    N        0.31492    0.84329    0.49139    1.000
    Si2764   Si       0.34706    0.84167    0.51885    1.000
    N2765    N        0.24579    0.83888    0.49620    1.000
    Si2766   Si       0.28063    0.84775    0.46816    1.000
    N2767    N        0.24589    0.76972    0.46690    1.000
    N2768    N        0.38522    0.83878    0.49570    1.000
    Si2769   Si       0.47627    0.85912    0.50193    1.000
    N2770    N        0.46247    0.81738    0.51102    1.000
    Si2771   Si       0.41004    0.87284    0.50846    1.000
    Si2772   Si       0.49082    0.78435    0.51703    1.000
    Si2773   Si       0.26021    0.95927    0.49379    1.000
    Si2774   Si       0.32993    0.96950    0.51368    1.000
    N2775    N        0.35321    0.96264    0.47676    1.000
    N2776    N        0.29193    0.94817    0.52089    1.000
    Si2777   Si       0.47550    0.00330    0.51055    1.000
    Si2778   Si       0.37372    0.92444    0.47266    1.000
    N2779    N        0.44846    0.89255    0.49730    1.000
    N2780    N        0.45933    0.96252    0.51665    1.000
    Si2781   Si       0.44798    0.93296    0.48358    1.000
    N2782    N        0.38312    0.90774    0.51162    1.000
    N2783    N        0.27626    0.78056    0.55981    1.000
    N2784    N        0.34212    0.80492    0.54045    1.000
    Si2785   Si       0.30437    0.87226    0.57067    1.000
    N2786    N        0.33988    0.87387    0.54701    1.000
    Si2787   Si       0.31291    0.79904    0.57437    1.000
    Si2788   Si       0.36298    0.76987    0.52584    1.000
    N2789    N        0.41851    0.85719    0.54955    1.000
    Si2790   Si       0.42989    0.81535    0.54350    1.000
    N2791    N        0.40509    0.77982    0.53179    1.000
    N2792    N        0.47185    0.75785    0.54527    1.000
    N2793    N        0.44040    0.80423    0.58449    1.000
    N2794    N        0.27025    0.88616    0.54523    1.000
    Si2795   Si       0.27936    0.92782    0.55693    1.000
    N2796    N        0.35452    0.95726    0.54725    1.000
    N2797    N        0.25077    0.95472    0.57481    1.000
    Si2798   Si       0.36199    0.91406    0.54929    1.000
    N2799    N        0.30411    0.91145    0.58944    1.000
    Si2800   Si       0.47602    0.95353    0.55612    1.000
    N2801    N        0.45705    0.91634    0.56979    1.000
    Si2802   Si       0.37123    0.99022    0.57264    1.000
    N2803    N        0.47523    0.98812    0.58625    1.000
    N2804    N        0.32476    0.78287    0.61282    1.000
    N2805    N        0.30471    0.83761    0.59561    1.000
    Si2806   Si       0.30634    0.81830    0.63690    1.000
    Si2807   Si       0.45941    0.79020    0.62128    1.000
    Si2808   Si       0.48413    0.86643    0.62928    1.000
    N2809    N        0.48481    0.82366    0.63488    1.000
    N2810    N        0.44297    0.88103    0.62124    1.000
    Si2811   Si       0.31215    0.93072    0.62666    1.000
    N2812    N        0.34566    0.95678    0.62643    1.000
    Si2813   Si       0.34442    0.99759    0.63940    1.000
    N2814    N        0.27511    0.95009    0.64006    1.000
    Si2815   Si       0.44194    0.98644    0.61539    1.000
    Si2816   Si       0.38389    0.93975    0.61353    1.000
    N2817    N        0.38880    0.90891    0.58333    1.000
    N2818    N        0.40383    0.97475    0.59953    1.000
    Si2819   Si       0.42625    0.88708    0.58122    1.000
    N2820    N        0.33242    0.83623    0.66851    1.000
    N2821    N        0.34537    0.76935    0.67710    1.000
    Si2822   Si       0.34927    0.80803    0.69698    1.000
    Si2823   Si       0.32992    0.87539    0.68564    1.000
    N2824    N        0.27300    0.79719    0.65150    1.000
    N2825    N        0.43015    0.78599    0.65040    1.000
    Si2826   Si       0.41177    0.77183    0.68695    1.000
    N2827    N        0.39327    0.81000    0.70379    1.000
    N2828    N        0.31440    0.00663    0.66920    1.000
    N2829    N        0.30974    0.89951    0.65726    1.000
    Si2830   Si       0.28030    0.97801    0.67454    1.000
    Si2831   Si       0.27836    0.90996    0.68549    1.000
    N2832    N        0.43427    0.90253    0.69329    1.000
    Si2833   Si       0.39411    0.92008    0.69501    1.000
    Si2834   Si       0.43758    0.91382    0.65025    1.000
    N2835    N        0.39533    0.92236    0.65082    1.000
    Si2836   Si       0.48612    0.96636    0.67282    1.000
    N2837    N        0.45468    0.95520    0.64532    1.000
    Si2838   Si       0.39221    0.00037    0.70131    1.000
    N2839    N        0.32123    0.79511    0.72844    1.000
    Si2840   Si       0.27847    0.86723    0.75072    1.000
    N2841    N        0.26189    0.82872    0.74883    1.000
    Si2842   Si       0.29144    0.79844    0.75969    1.000
    Si2843   Si       0.43251    0.82011    0.72098    1.000
    N2844    N        0.44255    0.77871    0.71930    1.000
    Si2845   Si       0.48089    0.75826    0.71738    1.000
    Si2846   Si       0.46981    0.87896    0.70308    1.000
    N2847    N        0.46748    0.83640    0.70295    1.000
    N2848    N        0.29920    0.88201    0.71510    1.000
    Si2849   Si       0.26821    0.94085    0.74642    1.000
    Si2850   Si       0.33440    0.90372    0.74871    1.000
    N2851    N        0.24903    0.89995    0.75265    1.000
    N2852    N        0.35924    0.89607    0.70989    1.000
    N2853    N        0.27882    0.94851    0.70511    1.000
    Si2854   Si       0.38508    0.95817    0.75836    1.000
    N2855    N        0.38830    0.95893    0.71479    1.000
    N2856    N        0.48214    0.89206    0.74286    1.000
    Si2857   Si       0.45376    0.98561    0.73669    1.000
    N2858    N        0.47639    0.95913    0.71385    1.000
    N2859    N        0.31480    0.80567    0.79409    1.000
    Si2860   Si       0.33413    0.84426    0.80237    1.000
    N2861    N        0.31196    0.87373    0.77778    1.000
    N2862    N        0.27219    0.75904    0.77023    1.000
    N2863    N        0.48219    0.85860    0.80644    1.000
    N2864    N        0.37630    0.85928    0.79882    1.000
    Si2865   Si       0.40714    0.82997    0.79325    1.000
    N2866    N        0.38867    0.79022    0.80032    1.000
    Si2867   Si       0.45951    0.87098    0.77326    1.000
    N2868    N        0.43500    0.83668    0.76157    1.000
    Si2869   Si       0.32594    0.95795    0.79744    1.000
    N2870    N        0.35678    0.98410    0.77869    1.000
    Si2871   Si       0.30215    0.89401    0.81700    1.000
    N2872    N        0.30688    0.93738    0.76465    1.000
    N2873    N        0.26061    0.90400    0.81749    1.000
    Si2874   Si       0.39076    0.89958    0.80235    1.000
    Si2875   Si       0.43580    0.00649    0.79204    1.000
    Si2876   Si       0.44107    0.94120    0.80924    1.000
    N2877    N        0.43401    0.90341    0.78725    1.000
    N2878    N        0.42565    0.97010    0.76871    1.000
    N2879    N        0.36968    0.91972    0.77042    1.000
    N2880    N        0.31412    0.85994    0.84089    1.000
    N2881    N        0.32855    0.79607    0.86642    1.000
    N2882    N        0.26787    0.76941    0.83699    1.000
    Si2883   Si       0.30925    0.78175    0.82863    1.000
    Si2884   Si       0.24861    0.76743    0.87637    1.000
    Si2885   Si       0.31984    0.83809    0.87753    1.000
    Si2886   Si       0.34841    0.75587    0.86782    1.000
    N2887    N        0.39209    0.76163    0.86944    1.000
    Si2888   Si       0.40984    0.78721    0.83847    1.000
    Si2889   Si       0.46140    0.84811    0.84622    1.000
    N2890    N        0.42536    0.82767    0.83437    1.000
    Si2891   Si       0.48462    0.77941    0.84145    1.000
    N2892    N        0.44554    0.76138    0.83879    1.000
    N2893    N        0.48902    0.81589    0.86222    1.000
    N2894    N        0.46317    0.87994    0.87728    1.000
    Si2895   Si       0.31028    0.95255    0.85823    1.000
    N2896    N        0.32976    0.92667    0.82845    1.000
    Si2897   Si       0.24775    0.91008    0.85895    1.000
    N2898    N        0.29555    0.97688    0.82538    1.000
    Si2899   Si       0.45528    0.98907    0.86784    1.000
    N2900    N        0.47749    0.92705    0.82830    1.000
    Si2901   Si       0.47358    0.92173    0.87148    1.000
    Si2902   Si       0.39817    0.94409    0.87369    1.000
    N2903    N        0.44522    0.98248    0.82550    1.000
    N2904    N        0.40185    0.92631    0.83480    1.000
    N2905    N        0.38031    0.98175    0.86615    1.000
    N2906    N        0.28342    0.83127    0.90168    1.000
    N2907    N        0.35206    0.85420    0.90010    1.000
    N2908    N        0.27360    0.76235    0.91122    1.000
    Si2909   Si       0.29388    0.80006    0.92983    1.000
    Si2910   Si       0.36727    0.82947    0.93380    1.000
    N2911    N        0.40275    0.80683    0.92999    1.000
    Si2912   Si       0.40789    0.76891    0.91022    1.000
    Si2913   Si       0.47138    0.87782    0.92130    1.000
    N2914    N        0.45039    0.75989    0.90922    1.000
    N2915    N        0.28150    0.92519    0.87883    1.000
    N2916    N        0.31659    0.97241    0.89636    1.000
    Si2917   Si       0.29493    0.94176    0.91704    1.000
    Si2918   Si       0.35415    0.89249    0.92233    1.000
    N2919    N        0.31557    0.90811    0.93357    1.000
    N2920    N        0.37880    0.92698    0.91293    1.000
    N2921    N        0.44058    0.94950    0.88195    1.000
    N2922    N        0.27309    0.79023    0.96645    1.000
    N2923    N        0.33587    0.80132    0.94591    1.000
    Si2924   Si       0.34959    0.78812    0.98694    1.000
    N2925    N        0.46907    0.79927    0.96036    1.000
    Si2926   Si       0.43336    0.82221    0.95662    1.000
    N2927    N        0.37282    0.86924    0.95497    1.000
    N2928    N        0.43821    0.86225    0.94473    1.000
    Si2929   Si       0.41152    0.87723    0.97696    1.000
    N2930    N        0.39110    0.77008    0.99351    1.000
    Si2931   Si       0.47645    0.75568    0.94753    1.000
    Si2932   Si       0.26506    0.96944    0.98391    1.000
    N2933    N        0.26631    0.95709    0.94367    1.000
    N2934    N        0.36493    0.95411    0.98801    1.000
    Si2935   Si       0.44109    0.00091    0.96964    1.000
    Si2936   Si       0.46270    0.92687    0.98024    1.000
    N2937    N        0.48261    0.91139    0.94746    1.000
    N2938    N        0.41939    0.92110    0.97004    1.000
    N2939    N        0.40512    0.98824    0.94384    1.000
    N2940    N        0.46902    0.96999    0.98308    1.000
    Si2941   Si       0.39020    0.94602    0.95227    1.000
    N2942    N        0.60257    0.09930    0.02734    1.000
    N2943    N        0.52522    0.06254    0.03441    1.000
    Si2944   Si       0.54001    0.03305    0.00895    1.000
    Si2945   Si       0.52381    0.10377    0.04181    1.000
    Si2946   Si       0.60545    0.05546    0.03381    1.000
    N2947    N        0.54692    0.12803    0.01051    1.000
    N2948    N        0.58362    0.03393    0.00281    1.000
    Si2949   Si       0.58461    0.13175    0.04876    1.000
    N2950    N        0.64884    0.05501    0.03262    1.000
    Si2951   Si       0.67847    0.02630    0.01837    1.000
    N2952    N        0.70781    0.04868    0.04586    1.000
    Si2953   Si       0.73352    0.05832    0.01396    1.000
    Si2954   Si       0.71925    0.12986    0.00686    1.000
    N2955    N        0.58171    0.17517    0.04057    1.000
    N2956    N        0.51136    0.18630    0.02589    1.000
    Si2957   Si       0.51775    0.22921    0.02826    1.000
    Si2958   Si       0.55133    0.17569    0.01000    1.000
    N2959    N        0.55429    0.23159    0.00761    1.000
    N2960    N        0.73501    0.21674    0.00025    1.000
    N2961    N        0.67255    0.18328    0.00143    1.000
    N2962    N        0.63425    0.23904    0.03220    1.000
    Si2963   Si       0.70649    0.19526    0.02546    1.000
    N2964    N        0.72639    0.15920    0.03716    1.000
    N2965    N        0.54901    0.11605    0.07473    1.000
    Si2966   Si       0.53602    0.03469    0.07235    1.000
    N2967    N        0.57881    0.04549    0.06826    1.000
    Si2968   Si       0.60602    0.04740    0.10285    1.000
    N2969    N        0.51664    0.06348    0.10169    1.000
    N2970    N        0.63759    0.07516    0.09420    1.000
    Si2971   Si       0.67277    0.06053    0.07230    1.000
    N2972    N        0.68893    0.10418    0.08242    1.000
    N2973    N        0.68243    0.02650    0.09875    1.000
    Si2974   Si       0.64876    0.11780    0.09586    1.000
    Si2975   Si       0.71667    0.10007    0.11732    1.000
    N2976    N        0.49398    0.17822    0.09114    1.000
    N2977    N        0.56364    0.19808    0.10463    1.000
    N2978    N        0.52222    0.23733    0.06947    1.000
    Si2979   Si       0.59676    0.18119    0.08305    1.000
    Si2980   Si       0.52272    0.20932    0.10097    1.000
    N2981    N        0.61305    0.14014    0.08185    1.000
    N2982    N        0.69217    0.21562    0.06076    1.000
    Si2983   Si       0.72237    0.22598    0.08918    1.000
    N2984    N        0.63169    0.20621    0.09423    1.000
    Si2985   Si       0.65382    0.23415    0.07020    1.000
    N2986    N        0.54947    0.11982    0.14486    1.000
    N2987    N        0.57891    0.06468    0.13202    1.000
    Si2988   Si       0.60741    0.06981    0.16462    1.000
    Si2989   Si       0.51285    0.12270    0.16892    1.000
    Si2990   Si       0.54948    0.09024    0.11395    1.000
    N2991    N        0.61922    0.11026    0.16672    1.000
    N2992    N        0.71303    0.03115    0.16030    1.000
    Si2993   Si       0.67797    0.04491    0.13797    1.000
    N2994    N        0.63909    0.04171    0.15677    1.000
    N2995    N        0.68575    0.08902    0.14612    1.000
    Si2996   Si       0.66037    0.12221    0.16335    1.000
    Si2997   Si       0.58551    0.13965    0.16446    1.000
    Si2998   Si       0.56833    0.21215    0.14796    1.000
    N2999    N        0.52340    0.22789    0.14053    1.000
    N3000    N        0.60100    0.17770    0.15031    1.000
    N3001    N        0.59249    0.24923    0.14724    1.000
    N3002    N        0.65840    0.21246    0.16057    1.000
    N3003    N        0.66075    0.14708    0.12740    1.000
    Si3004   Si       0.73756    0.23178    0.15743    1.000
    N3005    N        0.72543    0.19169    0.16635    1.000
    Si3006   Si       0.63667    0.25163    0.16328    1.000
    Si3007   Si       0.63995    0.18618    0.13192    1.000
    N3008    N        0.71185    0.24838    0.12363    1.000
    N3009    N        0.58986    0.06185    0.20368    1.000
    N3010    N        0.50436    0.10997    0.20920    1.000
    Si3011   Si       0.57576    0.02163    0.20064    1.000
    Si3012   Si       0.64758    0.02098    0.19298    1.000
    N3013    N        0.65482    0.05377    0.22048    1.000
    N3014    N        0.56988    0.13559    0.20615    1.000
    Si3015   Si       0.59379    0.22553    0.21666    1.000
    Si3016   Si       0.52049    0.19287    0.20131    1.000
    N3017    N        0.56053    0.20827    0.19326    1.000
    N3018    N        0.50468    0.22948    0.22195    1.000
    N3019    N        0.50287    0.16396    0.17459    1.000
    N3020    N        0.67512    0.14922    0.19460    1.000
    N3021    N        0.73496    0.25482    0.19552    1.000
    Si3022   Si       0.71335    0.24081    0.23177    1.000
    N3023    N        0.68518    0.20989    0.22271    1.000
    Si3024   Si       0.68806    0.19033    0.18502    1.000
    N3025    N        0.62706    0.25318    0.20495    1.000
    Si3026   Si       0.55930    0.04837    0.26432    1.000
    N3027    N        0.60254    0.05737    0.26900    1.000
    N3028    N        0.53101    0.07899    0.25350    1.000
    N3029    N        0.55005    0.01629    0.23468    1.000
    Si3030   Si       0.54049    0.11912    0.23376    1.000
    Si3031   Si       0.49445    0.07296    0.22942    1.000
    Si3032   Si       0.73634    0.11068    0.26224    1.000
    Si3033   Si       0.69080    0.06095    0.24128    1.000
    Si3034   Si       0.71191    0.01630    0.27618    1.000
    N3035    N        0.67984    0.04808    0.28169    1.000
    N3036    N        0.69852    0.10289    0.24335    1.000
    N3037    N        0.62770    0.11766    0.23949    1.000
    Si3038   Si       0.61763    0.07641    0.23137    1.000
    N3039    N        0.71919    0.02975    0.23373    1.000
    N3040    N        0.54193    0.21095    0.28195    1.000
    N3041    N        0.56548    0.13806    0.26711    1.000
    N3042    N        0.51584    0.16471    0.23633    1.000
    Si3043   Si       0.53487    0.16938    0.27423    1.000
    Si3044   Si       0.53030    0.24181    0.25408    1.000
    Si3045   Si       0.59857    0.14825    0.23963    1.000
    N3046    N        0.57282    0.25314    0.24401    1.000
    Si3047   Si       0.65396    0.20026    0.25078    1.000
    Si3048   Si       0.66880    0.13478    0.23795    1.000
    N3049    N        0.66951    0.22354    0.28700    1.000
    N3050    N        0.61483    0.18946    0.23518    1.000
    N3051    N        0.67207    0.16402    0.26823    1.000
    N3052    N        0.54726    0.02364    0.29921    1.000
    Si3053   Si       0.52899    0.02744    0.33942    1.000
    N3054    N        0.62956    0.02139    0.32810    1.000
    N3055    N        0.72412    0.10317    0.30430    1.000
    N3056    N        0.64685    0.08988    0.31417    1.000
    Si3057   Si       0.68815    0.08211    0.31537    1.000
    Si3058   Si       0.63722    0.04974    0.29598    1.000
    N3059    N        0.73654    0.01188    0.30970    1.000
    Si3060   Si       0.71850    0.01855    0.34802    1.000
    Si3061   Si       0.57101    0.21582    0.31320    1.000
    N3062    N        0.50779    0.15733    0.30627    1.000
    N3063    N        0.60615    0.19222    0.30487    1.000
    Si3064   Si       0.51980    0.16674    0.34605    1.000
    N3065    N        0.55633    0.18981    0.34623    1.000
    Si3066   Si       0.68392    0.18636    0.30423    1.000
    N3067    N        0.72652    0.19095    0.31455    1.000
    Si3068   Si       0.61765    0.17394    0.34147    1.000
    N3069    N        0.66136    0.17099    0.33853    1.000
    N3070    N        0.56319    0.03046    0.36691    1.000
    Si3071   Si       0.58776    0.05289    0.39589    1.000
    Si3072   Si       0.50038    0.09276    0.37629    1.000
    N3073    N        0.52587    0.12780    0.36458    1.000
    N3074    N        0.56583    0.09032    0.40178    1.000
    Si3075   Si       0.56771    0.13075    0.38052    1.000
    N3076    N        0.50416    0.05987    0.34635    1.000
    N3077    N        0.62440    0.06479    0.37460    1.000
    Si3078   Si       0.70415    0.08531    0.38266    1.000
    N3079    N        0.67186    0.11263    0.37553    1.000
    Si3080   Si       0.65315    0.02605    0.36636    1.000
    Si3081   Si       0.63480    0.10181    0.35469    1.000
    N3082    N        0.69555    0.05670    0.35046    1.000
    N3083    N        0.60466    0.13533    0.35822    1.000
    Si3084   Si       0.57098    0.20182    0.38620    1.000
    N3085    N        0.61263    0.20512    0.37527    1.000
    N3086    N        0.54328    0.23103    0.39952    1.000
    Si3087   Si       0.50094    0.21656    0.40088    1.000
    N3088    N        0.49148    0.19814    0.36259    1.000
    N3089    N        0.72042    0.16335    0.38096    1.000
    Si3090   Si       0.67706    0.15552    0.37424    1.000
    N3091    N        0.59715    0.03402    0.43415    1.000
    Si3092   Si       0.54094    0.08843    0.43858    1.000
    N3093    N        0.53419    0.04291    0.45068    1.000
    N3094    N        0.52406    0.12805    0.45256    1.000
    N3095    N        0.50041    0.07967    0.41863    1.000
    Si3096   Si       0.57329    0.04078    0.46971    1.000
    Si3097   Si       0.68447    0.03921    0.44689    1.000
    N3098    N        0.71174    0.07126    0.42245    1.000
    N3099    N        0.72467    0.01695    0.45076    1.000
    Si3100   Si       0.71346    0.09682    0.45978    1.000
    N3101    N        0.64174    0.11456    0.45402    1.000
    N3102    N        0.66508    0.02524    0.41009    1.000
    Si3103   Si       0.53199    0.16936    0.44066    1.000
    N3104    N        0.49245    0.18293    0.42819    1.000
    N3105    N        0.56080    0.16450    0.40718    1.000
    N3106    N        0.65895    0.17165    0.41002    1.000
    N3107    N        0.61523    0.20980    0.44510    1.000
    N3108    N        0.67011    0.24111    0.40761    1.000
    N3109    N        0.70973    0.13717    0.44400    1.000
    Si3110   Si       0.66621    0.14770    0.44663    1.000
    Si3111   Si       0.73357    0.16485    0.42270    1.000
    Si3112   Si       0.63933    0.21011    0.40910    1.000
    N3113    N        0.58096    0.02849    0.50879    1.000
    Si3114   Si       0.61151    0.10260    0.48042    1.000
    N3115    N        0.57588    0.08585    0.46549    1.000
    Si3116   Si       0.48790    0.12632    0.47738    1.000
    N3117    N        0.62475    0.07736    0.51771    1.000
    N3118    N        0.68554    0.06880    0.48043    1.000
    Si3119   Si       0.66851    0.08007    0.51782    1.000
    Si3120   Si       0.73752    0.06589    0.52110    1.000
    N3121    N        0.48641    0.16282    0.50082    1.000
    Si3122   Si       0.52328    0.18473    0.51334    1.000
    N3123    N        0.60492    0.13746    0.50332    1.000
    N3124    N        0.60392    0.20938    0.50616    1.000
    N3125    N        0.54543    0.19298    0.47393    1.000
    Si3126   Si       0.58035    0.21819    0.46855    1.000
    N3127    N        0.66462    0.24225    0.48145    1.000
    Si3128   Si       0.64016    0.20607    0.48150    1.000
    N3129    N        0.66629    0.17375    0.48138    1.000
    N3130    N        0.58431    0.10170    0.56206    1.000
    N3131    N        0.59009    0.03875    0.57673    1.000
    Si3132   Si       0.61131    0.04114    0.53741    1.000
    Si3133   Si       0.51006    0.01481    0.58109    1.000
    N3134    N        0.52444    0.05653    0.58074    1.000
    Si3135   Si       0.56521    0.07302    0.58973    1.000
    Si3136   Si       0.62038    0.11777    0.54014    1.000
    N3137    N        0.64485    0.01499    0.53686    1.000
    Si3138   Si       0.67935    0.02268    0.56286    1.000
    N3139    N        0.69817    0.05980    0.54567    1.000
    N3140    N        0.66482    0.11934    0.53647    1.000
    N3141    N        0.55129    0.16550    0.53980    1.000
    N3142    N        0.51279    0.21976    0.53801    1.000
    Si3143   Si       0.56703    0.14296    0.57664    1.000
    N3144    N        0.61181    0.15780    0.56071    1.000
    Si3145   Si       0.59271    0.17360    0.52512    1.000
    Si3146   Si       0.69236    0.14037    0.56135    1.000
    N3147    N        0.73051    0.16219    0.56374    1.000
    N3148    N        0.65836    0.25097    0.56177    1.000
    N3149    N        0.67258    0.17679    0.57692    1.000
    N3150    N        0.57776    0.08597    0.63176    1.000
    N3151    N        0.53315    0.11815    0.59651    1.000
    Si3152   Si       0.55519    0.12572    0.63642    1.000
    Si3153   Si       0.49933    0.09000    0.58852    1.000
    N3154    N        0.67109    0.04392    0.60047    1.000
    N3155    N        0.69411    0.11501    0.59907    1.000
    Si3156   Si       0.66144    0.02603    0.63892    1.000
    N3157    N        0.73337    0.05801    0.60797    1.000
    Si3158   Si       0.70072    0.07497    0.58753    1.000
    N3159    N        0.57925    0.15940    0.61871    1.000
    Si3160   Si       0.51259    0.24055    0.62228    1.000
    Si3161   Si       0.58029    0.20125    0.63255    1.000
    N3162    N        0.61215    0.21336    0.60318    1.000
    N3163    N        0.54090    0.21420    0.64430    1.000
    Si3164   Si       0.62933    0.25190    0.59211    1.000
    Si3165   Si       0.71161    0.19005    0.59146    1.000
    N3166    N        0.72058    0.23284    0.59428    1.000
    Si3167   Si       0.68574    0.14169    0.63204    1.000
    N3168    N        0.64443    0.15403    0.63258    1.000
    Si3169   Si       0.63231    0.17374    0.59600    1.000
    N3170    N        0.71110    0.17867    0.63383    1.000
    Si3171   Si       0.59130    0.06330    0.66665    1.000
    N3172    N        0.55054    0.04971    0.68215    1.000
    N3173    N        0.51763    0.12661    0.66189    1.000
    N3174    N        0.57782    0.12929    0.67793    1.000
    N3175    N        0.49912    0.00753    0.66208    1.000
    N3176    N        0.62113    0.03249    0.65270    1.000
    N3177    N        0.69054    0.04523    0.66552    1.000
    N3178    N        0.70242    0.12460    0.66841    1.000
    Si3179   Si       0.73121    0.04326    0.64915    1.000
    N3180    N        0.60346    0.19530    0.67022    1.000
    Si3181   Si       0.52689    0.20802    0.68564    1.000
    Si3182   Si       0.61448    0.15253    0.66436    1.000
    N3183    N        0.63439    0.13304    0.69716    1.000
    N3184    N        0.72330    0.24280    0.66106    1.000
    Si3185   Si       0.63350    0.21214    0.69695    1.000
    Si3186   Si       0.71392    0.20173    0.67144    1.000
    N3187    N        0.67570    0.20481    0.69198    1.000
    N3188    N        0.62629    0.25472    0.70115    1.000
    N3189    N        0.53050    0.10071    0.72399    1.000
    Si3190   Si       0.59775    0.11491    0.71450    1.000
    N3191    N        0.52560    0.02520    0.73490    1.000
    Si3192   Si       0.51685    0.06226    0.71012    1.000
    Si3193   Si       0.56235    0.01723    0.71095    1.000
    N3194    N        0.60625    0.07156    0.70898    1.000
    N3195    N        0.59417    0.00949    0.74105    1.000
    Si3196   Si       0.62314    0.04548    0.73794    1.000
    N3197    N        0.65919    0.02578    0.72394    1.000
    N3198    N        0.68186    0.08465    0.72476    1.000
    N3199    N        0.73274    0.03736    0.72397    1.000
    Si3200   Si       0.69280    0.04731    0.70787    1.000
    Si3201   Si       0.67617    0.12465    0.70281    1.000
    N3202    N        0.58423    0.12948    0.75344    1.000
    Si3203   Si       0.56142    0.16883    0.75125    1.000
    N3204    N        0.54249    0.17667    0.71347    1.000
    N3205    N        0.53209    0.24726    0.70519    1.000
    Si3206   Si       0.52783    0.13802    0.70036    1.000
    Si3207   Si       0.72158    0.13036    0.75426    1.000
    Si3208   Si       0.72811    0.24911    0.75506    1.000
    N3209    N        0.63488    0.19368    0.73879    1.000
    Si3210   Si       0.67683    0.19325    0.73433    1.000
    N3211    N        0.68951    0.15292    0.73114    1.000
    N3212    N        0.56648    0.08693    0.79620    1.000
    N3213    N        0.50765    0.07920    0.78183    1.000
    N3214    N        0.53680    0.01611    0.80376    1.000
    Si3215   Si       0.60468    0.10522    0.78399    1.000
    Si3216   Si       0.53381    0.06029    0.80989    1.000
    Si3217   Si       0.54017    0.10570    0.76618    1.000
    N3218    N        0.69483    0.11437    0.78388    1.000
    N3219    N        0.68937    0.04955    0.79416    1.000
    Si3220   Si       0.67464    0.07937    0.76682    1.000
    N3221    N        0.63167    0.07515    0.76967    1.000
    N3222    N        0.62819    0.13379    0.80633    1.000
    Si3223   Si       0.67117    0.13191    0.81357    1.000
    Si3224   Si       0.70016    0.00850    0.80104    1.000
    N3225    N        0.51830    0.24014    0.77396    1.000
    Si3226   Si       0.49524    0.21868    0.80175    1.000
    Si3227   Si       0.56122    0.24408    0.77090    1.000
    N3228    N        0.53030    0.15061    0.77863    1.000
    N3229    N        0.57868    0.20396    0.76907    1.000
    N3230    N        0.57488    0.26019    0.81049    1.000
    N3231    N        0.69928    0.21709    0.76161    1.000
    Si3232   Si       0.70863    0.20422    0.80317    1.000
    N3233    N        0.63572    0.25055    0.77422    1.000
    Si3234   Si       0.62059    0.20632    0.77713    1.000
    N3235    N        0.51981    0.06408    0.85115    1.000
    Si3236   Si       0.50596    0.09909    0.87437    1.000
    N3237    N        0.50067    0.13015    0.84380    1.000
    N3238    N        0.55928    0.00506    0.87130    1.000
    N3239    N        0.69089    0.11057    0.84741    1.000
    N3240    N        0.68669    0.05296    0.86511    1.000
    Si3241   Si       0.70593    0.07225    0.82930    1.000
    N3242    N        0.73123    0.01129    0.83137    1.000
    Si3243   Si       0.59991    0.23944    0.83841    1.000
    N3244    N        0.56867    0.15077    0.84662    1.000
    N3245    N        0.52195    0.19729    0.82989    1.000
    Si3246   Si       0.53686    0.21609    0.86607    1.000
    N3247    N        0.57877    0.22582    0.87249    1.000
    Si3248   Si       0.53208    0.15671    0.82228    1.000
    Si3249   Si       0.60863    0.15931    0.83330    1.000
    N3250    N        0.51061    0.25078    0.87633    1.000
    N3251    N        0.61966    0.20203    0.82098    1.000
    N3252    N        0.68611    0.23180    0.82685    1.000
    Si3253   Si       0.65908    0.19662    0.84424    1.000
    N3254    N        0.68922    0.17183    0.82181    1.000
    Si3255   Si       0.69769    0.24535    0.86825    1.000
    Si3256   Si       0.71535    0.14777    0.85185    1.000
    N3257    N        0.63985    0.16053    0.86463    1.000
    N3258    N        0.59314    0.05643    0.90929    1.000
    N3259    N        0.52213    0.04872    0.91588    1.000
    Si3260   Si       0.55689    0.07740    0.91871    1.000
    N3261    N        0.53962    0.11147    0.89759    1.000
    Si3262   Si       0.59234    0.01388    0.89906    1.000
    Si3263   Si       0.52233    0.02978    0.87586    1.000
    N3264    N        0.64538    0.10370    0.90457    1.000
    Si3265   Si       0.62891    0.07197    0.92768    1.000
    N3266    N        0.71128    0.09276    0.92181    1.000
    N3267    N        0.66523    0.04627    0.92591    1.000
    Si3268   Si       0.66681    0.02280    0.88859    1.000
    Si3269   Si       0.68372    0.09331    0.88709    1.000
    Si3270   Si       0.72997    0.13118    0.92585    1.000
    N3271    N        0.73600    0.03019    0.93394    1.000
    Si3272   Si       0.55808    0.14962    0.89038    1.000
    N3273    N        0.59405    0.15700    0.91347    1.000
    N3274    N        0.53466    0.18484    0.89841    1.000
    N3275    N        0.56217    0.23890    0.93779    1.000
    Si3276   Si       0.69205    0.18728    0.91576    1.000
    N3277    N        0.72912    0.20374    0.93454    1.000
    Si3278   Si       0.63653    0.14641    0.90445    1.000
    N3279    N        0.66062    0.16448    0.93866    1.000
    N3280    N        0.67596    0.21220    0.88448    1.000
    N3281    N        0.71114    0.15357    0.89452    1.000
    N3282    N        0.56223    0.09571    0.95673    1.000
    Si3283   Si       0.59445    0.10223    0.98444    1.000
    Si3284   Si       0.49865    0.04828    0.95270    1.000
    N3285    N        0.51915    0.01915    0.97531    1.000
    Si3286   Si       0.52939    0.11824    0.97044    1.000
    N3287    N        0.49692    0.08572    0.97483    1.000
    Si3288   Si       0.61521    0.02338    0.97145    1.000
    N3289    N        0.62433    0.07128    0.97101    1.000
    N3290    N        0.69859    0.05346    0.98663    1.000
    Si3291   Si       0.70270    0.05549    0.94331    1.000
    Si3292   Si       0.65998    0.07862    0.99590    1.000
    N3293    N        0.67912    0.11557    0.99555    1.000
    N3294    N        0.50002    0.14555    0.95347    1.000
    Si3295   Si       0.58165    0.24189    0.97633    1.000
    N3296    N        0.55617    0.17736    0.96694    1.000
    Si3297   Si       0.59727    0.17234    0.95330    1.000
    N3298    N        0.49677    0.22538    0.94089    1.000
    Si3299   Si       0.53499    0.20394    0.93699    1.000
    N3300    N        0.67191    0.24745    0.97812    1.000
    N3301    N        0.61255    0.20908    0.97177    1.000
    N3302    N        0.61398    0.14045    0.97731    1.000
    N3303    N        0.73051    0.14615    0.96767    1.000
    Si3304   Si       0.71548    0.25274    0.98293    1.000
    Si3305   Si       0.65667    0.15009    0.97857    1.000
    Si3306   Si       0.64692    0.21832    0.99707    1.000
    Si3307   Si       0.52352    0.32757    0.02413    1.000
    N3308    N        0.49565    0.36069    0.02031    1.000
    N3309    N        0.50580    0.29608    0.04738    1.000
    N3310    N        0.60518    0.30586    0.05162    1.000
    Si3311   Si       0.62130    0.27934    0.02140    1.000
    N3312    N        0.71785    0.34192    0.04336    1.000
    N3313    N        0.72524    0.28492    0.01204    1.000
    Si3314   Si       0.69752    0.32047    0.01160    1.000
    N3315    N        0.65982    0.30243    0.02480    1.000
    Si3316   Si       0.51946    0.38217    0.04918    1.000
    Si3317   Si       0.55255    0.44914    0.04345    1.000
    N3318    N        0.58075    0.46232    0.01168    1.000
    N3319    N        0.53985    0.41163    0.02430    1.000
    Si3320   Si       0.60890    0.42833    0.00600    1.000
    N3321    N        0.49845    0.49227    0.99816    1.000
    N3322    N        0.70288    0.48891    0.00418    1.000
    N3323    N        0.61941    0.40727    0.04414    1.000
    Si3324   Si       0.73514    0.41398    0.05359    1.000
    N3325    N        0.71171    0.41844    0.01604    1.000
    Si3326   Si       0.68174    0.45171    0.01482    1.000
    Si3327   Si       0.57443    0.32603    0.07603    1.000
    N3328    N        0.59652    0.35651    0.09672    1.000
    Si3329   Si       0.52014    0.27758    0.08466    1.000
    N3330    N        0.55522    0.29602    0.10062    1.000
    N3331    N        0.54580    0.34851    0.05396    1.000
    N3332    N        0.65811    0.34834    0.07657    1.000
    N3333    N        0.66137    0.27298    0.08760    1.000
    Si3334   Si       0.69993    0.35139    0.08255    1.000
    Si3335   Si       0.64773    0.30908    0.06646    1.000
    Si3336   Si       0.62799    0.38001    0.07785    1.000
    N3337    N        0.70869    0.32092    0.11300    1.000
    N3338    N        0.49898    0.39543    0.08466    1.000
    N3339    N        0.58093    0.45327    0.07522    1.000
    Si3340   Si       0.58878    0.49198    0.09265    1.000
    Si3341   Si       0.50338    0.43892    0.09572    1.000
    N3342    N        0.51315    0.46147    0.05954    1.000
    N3343    N        0.71676    0.39279    0.08503    1.000
    Si3344   Si       0.66281    0.49683    0.06974    1.000
    N3345    N        0.63559    0.41296    0.10412    1.000
    Si3346   Si       0.62604    0.44253    0.07337    1.000
    N3347    N        0.63138    0.48242    0.09761    1.000
    N3348    N        0.66488    0.45585    0.05502    1.000
    Si3349   Si       0.56813    0.28539    0.14456    1.000
    Si3350   Si       0.59728    0.35914    0.13889    1.000
    N3351    N        0.51667    0.36300    0.14497    1.000
    N3352    N        0.59450    0.31876    0.15389    1.000
    N3353    N        0.53100    0.29019    0.16431    1.000
    Si3354   Si       0.49977    0.26233    0.15221    1.000
    N3355    N        0.48633    0.28156    0.11317    1.000
    Si3356   Si       0.68663    0.28349    0.12198    1.000
    N3357    N        0.65752    0.28859    0.15293    1.000
    N3358    N        0.64118    0.36300    0.15078    1.000
    Si3359   Si       0.63667    0.32279    0.16877    1.000
    N3360    N        0.57934    0.39010    0.16211    1.000
    Si3361   Si       0.53672    0.47393    0.14943    1.000
    N3362    N        0.57242    0.49055    0.13281    1.000
    Si3363   Si       0.53829    0.40194    0.15714    1.000
    N3364    N        0.52858    0.43556    0.13312    1.000
    N3365    N        0.50338    0.49882    0.13510    1.000
    Si3366   Si       0.65040    0.50688    0.13139    1.000
    Si3367   Si       0.72751    0.40202    0.12801    1.000
    N3368    N        0.69272    0.42213    0.14494    1.000
    N3369    N        0.72936    0.49010    0.12377    1.000
    Si3370   Si       0.65128    0.40650    0.14430    1.000
    N3371    N        0.66999    0.48329    0.16231    1.000
    Si3372   Si       0.70940    0.46537    0.15324    1.000
    N3373    N        0.63097    0.42995    0.17354    1.000
    N3374    N        0.52049    0.34211    0.20952    1.000
    Si3375   Si       0.50208    0.38026    0.22091    1.000
    Si3376   Si       0.51110    0.32835    0.17067    1.000
    N3377    N        0.63422    0.32049    0.21153    1.000
    Si3378   Si       0.50116    0.45138    0.20450    1.000
    N3379    N        0.53718    0.47609    0.19321    1.000
    Si3380   Si       0.60406    0.40315    0.20018    1.000
    N3381    N        0.51670    0.41127    0.19511    1.000
    N3382    N        0.57944    0.43491    0.21994    1.000
    N3383    N        0.61145    0.49606    0.19735    1.000
    N3384    N        0.66360    0.45404    0.22920    1.000
    N3385    N        0.64171    0.38886    0.22201    1.000
    N3386    N        0.73310    0.46315    0.18842    1.000
    Si3387   Si       0.73585    0.48799    0.22217    1.000
    Si3388   Si       0.64308    0.46555    0.19194    1.000
    N3389    N        0.71314    0.39912    0.22127    1.000
    Si3390   Si       0.54746    0.34485    0.24595    1.000
    N3391    N        0.56913    0.32028    0.27721    1.000
    N3392    N        0.51767    0.37507    0.26196    1.000
    Si3393   Si       0.58329    0.27980    0.27565    1.000
    N3394    N        0.50987    0.27230    0.27638    1.000
    N3395    N        0.58223    0.36445    0.22949    1.000
    Si3396   Si       0.73205    0.37431    0.25332    1.000
    N3397    N        0.62865    0.27943    0.27123    1.000
    Si3398   Si       0.70989    0.30000    0.26237    1.000
    N3399    N        0.70024    0.34216    0.26069    1.000
    N3400    N        0.62796    0.35311    0.28055    1.000
    Si3401   Si       0.62291    0.35347    0.23661    1.000
    N3402    N        0.68635    0.27642    0.23538    1.000
    Si3403   Si       0.67058    0.36164    0.28690    1.000
    Si3404   Si       0.64437    0.28350    0.23208    1.000
    N3405    N        0.57325    0.44906    0.28147    1.000
    N3406    N        0.50758    0.45855    0.24625    1.000
    Si3407   Si       0.49375    0.48246    0.28163    1.000
    Si3408   Si       0.55286    0.46070    0.24165    1.000
    N3409    N        0.56092    0.50575    0.25219    1.000
    N3410    N        0.68057    0.40286    0.27910    1.000
    Si3411   Si       0.67207    0.48886    0.25516    1.000
    Si3412   Si       0.67521    0.41358    0.23609    1.000
    Si3413   Si       0.59365    0.34451    0.30508    1.000
    N3414    N        0.60549    0.32442    0.34160    1.000
    Si3415   Si       0.54446    0.38043    0.34557    1.000
    Si3416   Si       0.60113    0.27715    0.34787    1.000
    N3417    N        0.57790    0.38367    0.31899    1.000
    N3418    N        0.57968    0.25807    0.31550    1.000
    N3419    N        0.48830    0.28240    0.34798    1.000
    Si3420   Si       0.66042    0.26415    0.29956    1.000
    N3421    N        0.69915    0.28275    0.30126    1.000
    Si3422   Si       0.70862    0.31135    0.33279    1.000
    N3423    N        0.67735    0.34138    0.32552    1.000
    N3424    N        0.64336    0.27562    0.33746    1.000
    N3425    N        0.50214    0.38701    0.32924    1.000
    Si3426   Si       0.56500    0.48194    0.30887    1.000
    N3427    N        0.52307    0.48980    0.31443    1.000
    Si3428   Si       0.59139    0.42408    0.30936    1.000
    N3429    N        0.57598    0.45238    0.34421    1.000
    Si3430   Si       0.67475    0.43681    0.30959    1.000
    N3431    N        0.68563    0.47585    0.29441    1.000
    N3432    N        0.63437    0.43209    0.32425    1.000
    N3433    N        0.70496    0.42885    0.34209    1.000
    N3434    N        0.58634    0.28706    0.38828    1.000
    Si3435   Si       0.51054    0.31312    0.37045    1.000
    Si3436   Si       0.58119    0.33025    0.37820    1.000
    N3437    N        0.54367    0.33798    0.35721    1.000
    Si3438   Si       0.70254    0.26355    0.38754    1.000
    N3439    N        0.69236    0.30131    0.37142    1.000
    N3440    N        0.65095    0.34176    0.38951    1.000
    Si3441   Si       0.65019    0.31919    0.35216    1.000
    N3442    N        0.51072    0.46883    0.37663    1.000
    Si3443   Si       0.54926    0.44955    0.37699    1.000
    N3444    N        0.55022    0.40570    0.38067    1.000
    Si3445   Si       0.50888    0.50588    0.35441    1.000
    N3446    N        0.62584    0.48287    0.38343    1.000
    N3447    N        0.71545    0.49669    0.35781    1.000
    Si3448   Si       0.71394    0.45700    0.37365    1.000
    N3449    N        0.61834    0.41813    0.39402    1.000
    Si3450   Si       0.61774    0.44861    0.36065    1.000
    N3451    N        0.53049    0.35564    0.43974    1.000
    Si3452   Si       0.50729    0.32044    0.44058    1.000
    Si3453   Si       0.57453    0.35524    0.44662    1.000
    Si3454   Si       0.55765    0.26860    0.41447    1.000
    N3455    N        0.59208    0.36047    0.40680    1.000
    N3456    N        0.52546    0.29712    0.40784    1.000
    N3457    N        0.57049    0.25842    0.45627    1.000
    Si3458   Si       0.67776    0.26109    0.44647    1.000
    Si3459   Si       0.73460    0.31318    0.44606    1.000
    Si3460   Si       0.68056    0.31844    0.41391    1.000
    N3461    N        0.70424    0.34470    0.44047    1.000
    N3462    N        0.71199    0.28162    0.42846    1.000
    N3463    N        0.65218    0.29765    0.44484    1.000
    Si3464   Si       0.63440    0.37674    0.40525    1.000
    Si3465   Si       0.67832    0.37115    0.46718    1.000
    N3466    N        0.52409    0.50280    0.45199    1.000
    Si3467   Si       0.60408    0.48359    0.42100    1.000
    N3468    N        0.51495    0.43206    0.43877    1.000
    Si3469   Si       0.54204    0.46262    0.45229    1.000
    N3470    N        0.57726    0.39981    0.45655    1.000
    N3471    N        0.56866    0.45846    0.41706    1.000
    Si3472   Si       0.51523    0.39335    0.45770    1.000
    Si3473   Si       0.57898    0.41114    0.41341    1.000
    Si3474   Si       0.48839    0.44709    0.40625    1.000
    Si3475   Si       0.71644    0.47354    0.44448    1.000
    Si3476   Si       0.65283    0.43397    0.42228    1.000
    N3477    N        0.63345    0.46437    0.44667    1.000
    N3478    N        0.69424    0.45097    0.41359    1.000
    N3479    N        0.65760    0.39260    0.43667    1.000
    Si3480   Si       0.55967    0.28906    0.48501    1.000
    N3481    N        0.51921    0.29485    0.47409    1.000
    N3482    N        0.58517    0.32290    0.47267    1.000
    Si3483   Si       0.66434    0.26145    0.51954    1.000
    N3484    N        0.64388    0.35433    0.48994    1.000
    Si3485   Si       0.62803    0.31502    0.47820    1.000
    N3486    N        0.62908    0.28772    0.51299    1.000
    N3487    N        0.73681    0.31479    0.48867    1.000
    Si3488   Si       0.62722    0.37168    0.52692    1.000
    N3489    N        0.53063    0.39520    0.49992    1.000
    Si3490   Si       0.58111    0.49158    0.51252    1.000
    N3491    N        0.56401    0.45852    0.49068    1.000
    Si3492   Si       0.56919    0.41580    0.49676    1.000
    N3493    N        0.60184    0.40672    0.52424    1.000
    N3494    N        0.62388    0.49368    0.50693    1.000
    N3495    N        0.70518    0.38417    0.49923    1.000
    Si3496   Si       0.65166    0.49387    0.47482    1.000
    Si3497   Si       0.70959    0.50176    0.51285    1.000
    N3498    N        0.69392    0.48022    0.48056    1.000
    Si3499   Si       0.59720    0.29625    0.54271    1.000
    N3500    N        0.59857    0.34025    0.54382    1.000
    Si3501   Si       0.57806    0.35924    0.57651    1.000
    N3502    N        0.60078    0.28128    0.58354    1.000
    Si3503   Si       0.52385    0.26222    0.54947    1.000
    N3504    N        0.49476    0.35180    0.56332    1.000
    N3505    N        0.55960    0.28020    0.52754    1.000
    N3506    N        0.48687    0.28422    0.53929    1.000
    N3507    N        0.54464    0.38512    0.56566    1.000
    N3508    N        0.72799    0.35486    0.54951    1.000
    Si3509   Si       0.70013    0.26114    0.57162    1.000
    N3510    N        0.70720    0.26975    0.52990    1.000
    N3511    N        0.65957    0.37336    0.55546    1.000
    Si3512   Si       0.73792    0.32475    0.57677    1.000
    N3513    N        0.49802    0.42869    0.56372    1.000
    Si3514   Si       0.50890    0.38986    0.54153    1.000
    N3515    N        0.58657    0.50190    0.55547    1.000
    Si3516   Si       0.59909    0.42352    0.56654    1.000
    N3517    N        0.52097    0.50721    0.58030    1.000
    N3518    N        0.56617    0.44686    0.58320    1.000
    N3519    N        0.63516    0.45187    0.56329    1.000
    Si3520   Si       0.69839    0.38507    0.54371    1.000
    N3521    N        0.70611    0.42390    0.55976    1.000
    Si3522   Si       0.63369    0.49349    0.55000    1.000
    N3523    N        0.67854    0.50279    0.54170    1.000
    Si3524   Si       0.56639    0.28840    0.60843    1.000
    Si3525   Si       0.52111    0.35665    0.59766    1.000
    N3526    N        0.55892    0.33154    0.60086    1.000
    N3527    N        0.49811    0.33747    0.63190    1.000
    N3528    N        0.53514    0.26300    0.59259    1.000
    N3529    N        0.64658    0.27188    0.63058    1.000
    N3530    N        0.65403    0.34126    0.62070    1.000
    Si3531   Si       0.67483    0.30286    0.62314    1.000
    N3532    N        0.70491    0.29902    0.59265    1.000
    Si3533   Si       0.64793    0.37720    0.59830    1.000
    Si3534   Si       0.52824    0.42607    0.59464    1.000
    N3535    N        0.50628    0.45659    0.62260    1.000
    N3536    N        0.52286    0.39360    0.62227    1.000
    N3537    N        0.57295    0.48679    0.63488    1.000
    N3538    N        0.60576    0.38897    0.59041    1.000
    Si3539   Si       0.56329    0.48955    0.59065    1.000
    Si3540   Si       0.67357    0.44191    0.58381    1.000
    Si3541   Si       0.72363    0.49870    0.60671    1.000
    N3542    N        0.66748    0.41223    0.61404    1.000
    N3543    N        0.68345    0.47992    0.60628    1.000
    Si3544   Si       0.53983    0.27725    0.67329    1.000
    N3545    N        0.55055    0.31238    0.69305    1.000
    Si3546   Si       0.49668    0.37590    0.65079    1.000
    Si3547   Si       0.58388    0.33890    0.69540    1.000
    N3548    N        0.50046    0.26814    0.65220    1.000
    N3549    N        0.58849    0.37826    0.68149    1.000
    N3550    N        0.57641    0.27417    0.64859    1.000
    Si3551   Si       0.61647    0.27780    0.66449    1.000
    N3552    N        0.62094    0.31983    0.68051    1.000
    Si3553   Si       0.71702    0.28062    0.68158    1.000
    Si3554   Si       0.65479    0.34113    0.66404    1.000
    N3555    N        0.68814    0.31348    0.66480    1.000
    Si3556   Si       0.72563    0.34110    0.66864    1.000
    N3557    N        0.71662    0.37941    0.64647    1.000
    N3558    N        0.65704    0.38179    0.67629    1.000
    N3559    N        0.51822    0.38286    0.68732    1.000
    Si3560   Si       0.53321    0.47274    0.65248    1.000
    Si3561   Si       0.59408    0.47325    0.67110    1.000
    N3562    N        0.55159    0.44299    0.67704    1.000
    Si3563   Si       0.55456    0.40265    0.68834    1.000
    N3564    N        0.62005    0.43955    0.68531    1.000
    Si3565   Si       0.68513    0.40733    0.65557    1.000
    N3566    N        0.63559    0.49503    0.66316    1.000
    Si3567   Si       0.65575    0.46404    0.68950    1.000
    N3568    N        0.69343    0.44705    0.67192    1.000
    N3569    N        0.72626    0.50754    0.64941    1.000
    Si3570   Si       0.73059    0.47092    0.67140    1.000
    Si3571   Si       0.62417    0.39913    0.69697    1.000
    N3572    N        0.57552    0.34409    0.74094    1.000
    Si3573   Si       0.54855    0.30672    0.73674    1.000
    N3574    N        0.50807    0.30237    0.74772    1.000
    N3575    N        0.57854    0.27750    0.74775    1.000
    N3576    N        0.51812    0.37440    0.75887    1.000
    Si3577   Si       0.50367    0.25971    0.73799    1.000
    Si3578   Si       0.62197    0.27246    0.73903    1.000
    N3579    N        0.71797    0.28145    0.72444    1.000
    N3580    N        0.63944    0.30910    0.74940    1.000
    Si3581   Si       0.73595    0.31773    0.74129    1.000
    N3582    N        0.73658    0.35119    0.70967    1.000
    Si3583   Si       0.56137    0.38344    0.75611    1.000
    N3584    N        0.52363    0.47205    0.74966    1.000
    N3585    N        0.55777    0.41662    0.73123    1.000
    Si3586   Si       0.49700    0.39091    0.72408    1.000
    N3587    N        0.58001    0.49113    0.70939    1.000
    Si3588   Si       0.55442    0.45958    0.72231    1.000
    N3589    N        0.66645    0.47363    0.72904    1.000
    N3590    N        0.62351    0.39650    0.73842    1.000
    N3591    N        0.70960    0.41750    0.74763    1.000
    N3592    N        0.58954    0.32690    0.80504    1.000
    Si3593   Si       0.60953    0.33447    0.76811    1.000
    Si3594   Si       0.49654    0.38406    0.79664    1.000
    N3595    N        0.71225    0.34194    0.76933    1.000
    Si3596   Si       0.67246    0.32632    0.77820    1.000
    N3597    N        0.64238    0.35772    0.78623    1.000
    N3598    N        0.67498    0.30170    0.81166    1.000
    Si3599   Si       0.65918    0.25988    0.80972    1.000
    Si3600   Si       0.72692    0.38340    0.77319    1.000
    N3601    N        0.58373    0.39137    0.79172    1.000
    Si3602   Si       0.55669    0.44037    0.80877    1.000
    N3603    N        0.59120    0.46481    0.79837    1.000
    N3604    N        0.51685    0.42521    0.80095    1.000
    Si3605   Si       0.49216    0.44544    0.76912    1.000
    Si3606   Si       0.57021    0.50572    0.79926    1.000
    Si3607   Si       0.67909    0.44854    0.76238    1.000
    Si3608   Si       0.62659    0.39763    0.78070    1.000
    Si3609   Si       0.73695    0.44525    0.81032    1.000
    N3610    N        0.64975    0.43303    0.79065    1.000
    Si3611   Si       0.63074    0.46215    0.81473    1.000
    N3612    N        0.70774    0.47055    0.78846    1.000
    N3613    N        0.71990    0.40130    0.81473    1.000
    Si3614   Si       0.51923    0.33716    0.85687    1.000
    N3615    N        0.56122    0.34690    0.85906    1.000
    Si3616   Si       0.56752    0.29751    0.82921    1.000
    N3617    N        0.52531    0.30255    0.82879    1.000
    Si3618   Si       0.58720    0.36519    0.82768    1.000
    N3619    N        0.57877    0.28769    0.87051    1.000
    N3620    N        0.50640    0.37558    0.83984    1.000
    Si3621   Si       0.49506    0.27827    0.84501    1.000
    Si3622   Si       0.69574    0.31358    0.84899    1.000
    N3623    N        0.68362    0.35289    0.85613    1.000
    N3624    N        0.63568    0.26326    0.84818    1.000
    N3625    N        0.61871    0.38566    0.85082    1.000
    N3626    N        0.53864    0.47687    0.82648    1.000
    Si3627   Si       0.51924    0.41488    0.84963    1.000
    Si3628   Si       0.59869    0.41816    0.87048    1.000
    N3629    N        0.56261    0.42071    0.84755    1.000
    Si3630   Si       0.49567    0.47643    0.83023    1.000
    Si3631   Si       0.73528    0.47420    0.87831    1.000
    N3632    N        0.69340    0.47509    0.86586    1.000
    N3633    N        0.62605    0.45019    0.85766    1.000
    Si3634   Si       0.70710    0.39047    0.85273    1.000
    N3635    N        0.64826    0.50082    0.81928    1.000
    Si3636   Si       0.58181    0.32825    0.89453    1.000
    N3637    N        0.50876    0.34110    0.90086    1.000
    N3638    N        0.57606    0.30069    0.92779    1.000
    N3639    N        0.56890    0.36428    0.92015    1.000
    Si3640   Si       0.52744    0.37690    0.91697    1.000
    Si3641   Si       0.58333    0.26092    0.90585    1.000
    Si3642   Si       0.70625    0.30111    0.92232    1.000
    N3643    N        0.62656    0.32908    0.88516    1.000
    N3644    N        0.64683    0.37830    0.92670    1.000
    N3645    N        0.68721    0.28743    0.88362    1.000
    N3646    N        0.62646    0.26380    0.91529    1.000
    Si3647   Si       0.64257    0.28824    0.88150    1.000
    Si3648   Si       0.64905    0.36817    0.87914    1.000
    N3649    N        0.52253    0.41190    0.89437    1.000
    N3650    N        0.49258    0.48056    0.92573    1.000
    N3651    N        0.55319    0.48061    0.89608    1.000
    N3652    N        0.59352    0.42171    0.91240    1.000
    Si3653   Si       0.56940    0.45487    0.92523    1.000
    Si3654   Si       0.52650    0.50790    0.91923    1.000
    Si3655   Si       0.66290    0.45011    0.88166    1.000
    N3656    N        0.67741    0.40980    0.87841    1.000
    Si3657   Si       0.67689    0.40875    0.92422    1.000
    N3658    N        0.66036    0.44880    0.92569    1.000
    N3659    N        0.74191    0.38803    0.87871    1.000
    Si3660   Si       0.58292    0.31187    0.96904    1.000
    N3661    N        0.60755    0.27733    0.98076    1.000
    N3662    N        0.55041    0.31747    0.99376    1.000
    N3663    N        0.61275    0.34552    0.96877    1.000
    Si3664   Si       0.60353    0.38327    0.94080    1.000
    Si3665   Si       0.65397    0.34591    0.95818    1.000
    Si3666   Si       0.64323    0.27292    0.95559    1.000
    N3667    N        0.68610    0.35621    0.98565    1.000
    N3668    N        0.72635    0.27002    0.94450    1.000
    N3669    N        0.66847    0.30713    0.94705    1.000
    Si3670   Si       0.71939    0.38551    0.98384    1.000
    N3671    N        0.51585    0.38527    0.95863    1.000
    Si3672   Si       0.50171    0.46519    0.96566    1.000
    Si3673   Si       0.54668    0.41123    0.98147    1.000
    N3674    N        0.54097    0.44684    0.95653    1.000
    N3675    N        0.59907    0.48014    0.94937    1.000
    Si3676   Si       0.57492    0.49409    0.98151    1.000
    N3677    N        0.58955    0.40432    0.97705    1.000
    N3678    N        0.64595    0.44632    0.99151    1.000
    Si3679   Si       0.64133    0.47073    0.95592    1.000
    N3680    N        0.71602    0.40125    0.94234    1.000
    Si3681   Si       0.51793    0.59478    0.02938    1.000
    Si3682   Si       0.60485    0.53879    0.03955    1.000
    N3683    N        0.55342    0.59496    0.05391    1.000
    N3684    N        0.58691    0.53219    0.00115    1.000
    Si3685   Si       0.73060    0.55830    0.03879    1.000
    Si3686   Si       0.65878    0.56098    0.03396    1.000
    N3687    N        0.64421    0.52025    0.04028    1.000
    N3688    N        0.62181    0.57839    0.04689    1.000
    N3689    N        0.73246    0.54560    0.99928    1.000
    N3690    N        0.69430    0.57845    0.05176    1.000
    N3691    N        0.51134    0.63210    0.00808    1.000
    N3692    N        0.55553    0.74598    0.03674    1.000
    N3693    N        0.49812    0.70419    0.01992    1.000
    N3694    N        0.56134    0.67656    0.03340    1.000
    Si3695   Si       0.53159    0.72879    0.00494    1.000
    N3696    N        0.66134    0.65304    0.03743    1.000
    N3697    N        0.67386    0.75419    0.04582    1.000
    Si3698   Si       0.65052    0.65483    0.99492    1.000
    N3699    N        0.58175    0.53060    0.07424    1.000
    Si3700   Si       0.55898    0.56623    0.08586    1.000
    N3701    N        0.52074    0.55626    0.10473    1.000
    Si3702   Si       0.49196    0.63087    0.09156    1.000
    N3703    N        0.58262    0.59048    0.11326    1.000
    Si3704   Si       0.61569    0.59925    0.08391    1.000
    Si3705   Si       0.69172    0.59325    0.09224    1.000
    Si3706   Si       0.71895    0.52675    0.10410    1.000
    N3707    N        0.67779    0.52100    0.10340    1.000
    N3708    N        0.65135    0.59367    0.10736    1.000
    N3709    N        0.73017    0.52185    0.06227    1.000
    N3710    N        0.72388    0.56944    0.11188    1.000
    N3711    N        0.60243    0.63788    0.07030    1.000
    N3712    N        0.53158    0.64802    0.09051    1.000
    N3713    N        0.55021    0.71328    0.09816    1.000
    Si3714   Si       0.52808    0.75066    0.10583    1.000
    Si3715   Si       0.55990    0.63931    0.05949    1.000
    Si3716   Si       0.56912    0.71162    0.06039    1.000
    N3717    N        0.49075    0.74648    0.08002    1.000
    Si3718   Si       0.69020    0.66226    0.06853    1.000
    N3719    N        0.61232    0.70748    0.06343    1.000
    Si3720   Si       0.63603    0.74458    0.06832    1.000
    N3721    N        0.71153    0.63153    0.09016    1.000
    N3722    N        0.65597    0.73997    0.10672    1.000
    N3723    N        0.65887    0.67423    0.09602    1.000
    Si3724   Si       0.62987    0.66882    0.06389    1.000
    Si3725   Si       0.71124    0.74223    0.06412    1.000
    N3726    N        0.71467    0.69734    0.06031    1.000
    Si3727   Si       0.58216    0.61813    0.14709    1.000
    Si3728   Si       0.51871    0.53901    0.14487    1.000
    Si3729   Si       0.58989    0.51846    0.16466    1.000
    N3730    N        0.55490    0.54223    0.16699    1.000
    Si3731   Si       0.51046    0.63279    0.16975    1.000
    N3732    N        0.48675    0.61940    0.13333    1.000
    N3733    N        0.54794    0.60703    0.17274    1.000
    N3734    N        0.72275    0.62365    0.15603    1.000
    N3735    N        0.62349    0.53801    0.14454    1.000
    Si3736   Si       0.64302    0.57773    0.14701    1.000
    Si3737   Si       0.71974    0.57975    0.15501    1.000
    N3738    N        0.62060    0.60894    0.16678    1.000
    N3739    N        0.57889    0.65999    0.14368    1.000
    Si3740   Si       0.54335    0.67626    0.12236    1.000
    N3741    N        0.51509    0.67531    0.15603    1.000
    N3742    N        0.52156    0.75437    0.14677    1.000
    Si3743   Si       0.55762    0.75251    0.17224    1.000
    Si3744   Si       0.62948    0.75305    0.16629    1.000
    N3745    N        0.69194    0.69145    0.15387    1.000
    Si3746   Si       0.65755    0.70275    0.12896    1.000
    N3747    N        0.62537    0.71107    0.15682    1.000
    Si3748   Si       0.73385    0.70428    0.16160    1.000
    Si3749   Si       0.55773    0.57211    0.19883    1.000
    N3750    N        0.59124    0.55676    0.22110    1.000
    N3751    N        0.52624    0.56513    0.22630    1.000
    Si3752   Si       0.48927    0.57290    0.20704    1.000
    Si3753   Si       0.69971    0.55487    0.20862    1.000
    N3754    N        0.69983    0.51193    0.22713    1.000
    Si3755   Si       0.63337    0.63182    0.20027    1.000
    N3756    N        0.73812    0.55338    0.18387    1.000
    N3757    N        0.67907    0.56986    0.17224    1.000
    N3758    N        0.60234    0.66253    0.20674    1.000
    N3759    N        0.56149    0.71340    0.18720    1.000
    Si3760   Si       0.51838    0.69881    0.19380    1.000
    N3761    N        0.52749    0.65938    0.21577    1.000
    Si3762   Si       0.59336    0.68942    0.17471    1.000
    Si3763   Si       0.70393    0.65573    0.17963    1.000
    N3764    N        0.62229    0.75573    0.20881    1.000
    N3765    N        0.67473    0.64424    0.20795    1.000
    N3766    N        0.57278    0.61470    0.25035    1.000
    Si3767   Si       0.53214    0.53724    0.25938    1.000
    Si3768   Si       0.60418    0.58527    0.24933    1.000
    Si3769   Si       0.54225    0.60526    0.28137    1.000
    N3770    N        0.50103    0.62222    0.26831    1.000
    N3771    N        0.49208    0.52474    0.26741    1.000
    Si3772   Si       0.60075    0.51464    0.23531    1.000
    N3773    N        0.70206    0.57803    0.24412    1.000
    Si3774   Si       0.68145    0.61875    0.24534    1.000
    N3775    N        0.63426    0.50959    0.26392    1.000
    N3776    N        0.66743    0.62642    0.28753    1.000
    Si3777   Si       0.73747    0.56870    0.27329    1.000
    N3778    N        0.63951    0.60366    0.23269    1.000
    N3779    N        0.61848    0.57110    0.28871    1.000
    N3780    N        0.57088    0.68071    0.27006    1.000
    Si3781   Si       0.56800    0.65586    0.23413    1.000
    N3782    N        0.51860    0.72252    0.24252    1.000
    N3783    N        0.57974    0.74886    0.26771    1.000
    Si3784   Si       0.54976    0.71835    0.27439    1.000
    Si3785   Si       0.49067    0.64347    0.23359    1.000
    N3786    N        0.71756    0.64142    0.25669    1.000
    Si3787   Si       0.72653    0.71818    0.28891    1.000
    Si3788   Si       0.56365    0.55176    0.33114    1.000
    N3789    N        0.58825    0.51675    0.31747    1.000
    N3790    N        0.54268    0.56345    0.29378    1.000
    N3791    N        0.54025    0.63049    0.31637    1.000
    Si3792   Si       0.57346    0.63120    0.34467    1.000
    N3793    N        0.58157    0.58586    0.34962    1.000
    N3794    N        0.65960    0.53175    0.32754    1.000
    Si3795   Si       0.63594    0.60682    0.30775    1.000
    Si3796   Si       0.62679    0.52981    0.30084    1.000
    Si3797   Si       0.69839    0.51015    0.31918    1.000
    N3798    N        0.72509    0.53495    0.29602    1.000
    N3799    N        0.65029    0.59956    0.34981    1.000
    N3800    N        0.49652    0.68597    0.29437    1.000
    N3801    N        0.60535    0.63668    0.31244    1.000
    Si3802   Si       0.49997    0.64580    0.30732    1.000
    Si3803   Si       0.59484    0.67754    0.30573    1.000
    N3804    N        0.54381    0.72751    0.31736    1.000
    N3805    N        0.57700    0.67877    0.34754    1.000
    N3806    N        0.62521    0.70847    0.30154    1.000
    Si3807   Si       0.61466    0.74961    0.29419    1.000
    Si3808   Si       0.70068    0.65097    0.29644    1.000
    N3809    N        0.69336    0.69359    0.29877    1.000
    Si3810   Si       0.66156    0.70398    0.32347    1.000
    N3811    N        0.71264    0.63704    0.33441    1.000
    N3812    N        0.51275    0.60406    0.38382    1.000
    N3813    N        0.53508    0.54012    0.36317    1.000
    Si3814   Si       0.52131    0.56484    0.39883    1.000
    N3815    N        0.59853    0.63192    0.38687    1.000
    Si3816   Si       0.61503    0.59404    0.37889    1.000
    N3817    N        0.69932    0.55913    0.38256    1.000
    N3818    N        0.62980    0.55713    0.39145    1.000
    Si3819   Si       0.66244    0.55665    0.36258    1.000
    Si3820   Si       0.72598    0.52496    0.38699    1.000
    Si3821   Si       0.71542    0.59396    0.40302    1.000
    N3822    N        0.68921    0.63023    0.40208    1.000
    Si3823   Si       0.67660    0.63481    0.36066    1.000
    N3824    N        0.57028    0.73935    0.37850    1.000
    N3825    N        0.50590    0.70612    0.36784    1.000
    Si3826   Si       0.59314    0.67594    0.38812    1.000
    Si3827   Si       0.54665    0.71028    0.35661    1.000
    Si3828   Si       0.66330    0.70240    0.38733    1.000
    N3829    N        0.66524    0.73512    0.35529    1.000
    N3830    N        0.65918    0.67251    0.35420    1.000
    N3831    N        0.54310    0.56903    0.43703    1.000
    N3832    N        0.59350    0.52297    0.43746    1.000
    Si3833   Si       0.55559    0.53387    0.45867    1.000
    Si3834   Si       0.53500    0.59948    0.46753    1.000
    N3835    N        0.61907    0.58859    0.44954    1.000
    Si3836   Si       0.62726    0.54911    0.43380    1.000
    N3837    N        0.66249    0.53222    0.45478    1.000
    N3838    N        0.72091    0.58444    0.44493    1.000
    Si3839   Si       0.70496    0.54362    0.45454    1.000
    N3840    N        0.72513    0.51360    0.42856    1.000
    Si3841   Si       0.55523    0.66962    0.45450    1.000
    Si3842   Si       0.55686    0.72930    0.42083    1.000
    N3843    N        0.51627    0.74909    0.42025    1.000
    N3844    N        0.52295    0.64041    0.45741    1.000
    N3845    N        0.59511    0.65372    0.46420    1.000
    N3846    N        0.58544    0.75238    0.44544    1.000
    N3847    N        0.56007    0.68475    0.41466    1.000
    N3848    N        0.73465    0.65530    0.45382    1.000
    Si3849   Si       0.69765    0.66205    0.42910    1.000
    Si3850   Si       0.62731    0.68043    0.45194    1.000
    N3851    N        0.62669    0.69386    0.41004    1.000
    N3852    N        0.66721    0.66220    0.46102    1.000
    N3853    N        0.70080    0.70000    0.40958    1.000
    Si3854   Si       0.73600    0.72417    0.40463    1.000
    N3855    N        0.57041    0.59646    0.49506    1.000
    N3856    N        0.56621    0.53176    0.49958    1.000
    N3857    N        0.50031    0.58484    0.49291    1.000
    Si3858   Si       0.60623    0.61448    0.48129    1.000
    Si3859   Si       0.57081    0.56776    0.52577    1.000
    N3860    N        0.70796    0.61776    0.50472    1.000
    N3861    N        0.63832    0.61688    0.50916    1.000
    N3862    N        0.71895    0.54305    0.49664    1.000
    Si3863   Si       0.71140    0.57716    0.52225    1.000
    Si3864   Si       0.58521    0.72994    0.48425    1.000
    Si3865   Si       0.50501    0.71324    0.48018    1.000
    N3866    N        0.58080    0.75085    0.52128    1.000
    N3867    N        0.54815    0.70671    0.47531    1.000
    Si3868   Si       0.67318    0.64298    0.50009    1.000
    N3869    N        0.62490    0.71148    0.48308    1.000
    N3870    N        0.70268    0.72757    0.50260    1.000
    Si3871   Si       0.65972    0.71529    0.50787    1.000
    N3872    N        0.53484    0.57359    0.54909    1.000
    N3873    N        0.60561    0.57583    0.54931    1.000
    Si3874   Si       0.49420    0.58524    0.53610    1.000
    N3875    N        0.49069    0.62374    0.55669    1.000
    Si3876   Si       0.67877    0.53418    0.57068    1.000
    N3877    N        0.67669    0.57094    0.54768    1.000
    Si3878   Si       0.64323    0.59858    0.54609    1.000
    N3879    N        0.65407    0.63111    0.57283    1.000
    Si3880   Si       0.48417    0.66592    0.54594    1.000
    N3881    N        0.53496    0.74253    0.56972    1.000
    Si3882   Si       0.61160    0.75188    0.55452    1.000
    Si3883   Si       0.49331    0.73648    0.57647    1.000
    N3884    N        0.65129    0.74679    0.53680    1.000
    N3885    N        0.72951    0.73112    0.56180    1.000
    Si3886   Si       0.71836    0.69629    0.53230    1.000
    Si3887   Si       0.67435    0.66626    0.56807    1.000
    N3888    N        0.71974    0.66725    0.56679    1.000
    N3889    N        0.67448    0.67812    0.52525    1.000
    Si3890   Si       0.72939    0.75474    0.52062    1.000
    N3891    N        0.50882    0.58035    0.61307    1.000
    N3892    N        0.56559    0.54295    0.60409    1.000
    Si3893   Si       0.60547    0.55430    0.58804    1.000
    N3894    N        0.56057    0.61985    0.64256    1.000
    Si3895   Si       0.56023    0.53029    0.64570    1.000
    Si3896   Si       0.52511    0.55183    0.58525    1.000
    N3897    N        0.61829    0.58881    0.61570    1.000
    Si3898   Si       0.63941    0.62681    0.61321    1.000
    N3899    N        0.73302    0.60590    0.60004    1.000
    N3900    N        0.71631    0.53736    0.59087    1.000
    Si3901   Si       0.71443    0.61374    0.63971    1.000
    N3902    N        0.63871    0.52422    0.58682    1.000
    N3903    N        0.67211    0.62169    0.64154    1.000
    Si3904   Si       0.65435    0.50666    0.62471    1.000
    N3905    N        0.49451    0.63748    0.62527    1.000
    Si3906   Si       0.57374    0.65939    0.63588    1.000
    N3907    N        0.54756    0.67999    0.60706    1.000
    Si3908   Si       0.56203    0.72155    0.59842    1.000
    N3909    N        0.55540    0.74567    0.63521    1.000
    Si3910   Si       0.50524    0.67807    0.61796    1.000
    N3911    N        0.60296    0.72163    0.58783    1.000
    N3912    N        0.61310    0.66098    0.62059    1.000
    Si3913   Si       0.62988    0.70207    0.61568    1.000
    Si3914   Si       0.70369    0.72225    0.59964    1.000
    N3915    N        0.66889    0.69720    0.59905    1.000
    N3916    N        0.59209    0.55059    0.66555    1.000
    N3917    N        0.52315    0.57879    0.68265    1.000
    Si3918   Si       0.49950    0.54256    0.68664    1.000
    N3919    N        0.52630    0.51381    0.66593    1.000
    Si3920   Si       0.59291    0.59199    0.65057    1.000
    Si3921   Si       0.51870    0.60772    0.64853    1.000
    N3922    N        0.61991    0.60569    0.68277    1.000
    Si3923   Si       0.63269    0.53961    0.67289    1.000
    Si3924   Si       0.70686    0.54245    0.66480    1.000
    N3925    N        0.72682    0.57944    0.66297    1.000
    N3926    N        0.66862    0.54426    0.64742    1.000
    Si3927   Si       0.65598    0.63052    0.67983    1.000
    Si3928   Si       0.61182    0.69458    0.68790    1.000
    Si3929   Si       0.59217    0.75736    0.65221    1.000
    Si3930   Si       0.51381    0.74451    0.64802    1.000
    N3931    N        0.57266    0.67941    0.67496    1.000
    Si3932   Si       0.52874    0.67757    0.68599    1.000
    N3933    N        0.50813    0.70109    0.65405    1.000
    N3934    N        0.50908    0.63912    0.69136    1.000
    N3935    N        0.62107    0.72411    0.65384    1.000
    N3936    N        0.64781    0.67260    0.68730    1.000
    N3937    N        0.72772    0.64709    0.66384    1.000
    N3938    N        0.57235    0.56513    0.73197    1.000
    Si3939   Si       0.53175    0.60799    0.71429    1.000
    Si3940   Si       0.59560    0.52679    0.72949    1.000
    Si3941   Si       0.59844    0.59851    0.72085    1.000
    N3942    N        0.51415    0.59212    0.75098    1.000
    N3943    N        0.48775    0.53426    0.72940    1.000
    N3944    N        0.56795    0.62912    0.72468    1.000
    N3945    N        0.63467    0.53822    0.71468    1.000
    Si3946   Si       0.66975    0.51849    0.72727    1.000
    N3947    N        0.70454    0.53285    0.70649    1.000
    N3948    N        0.62601    0.61142    0.75323    1.000
    N3949    N        0.68297    0.62772    0.71438    1.000
    Si3950   Si       0.66576    0.62863    0.75676    1.000
    Si3951   Si       0.49469    0.69445    0.74922    1.000
    N3952    N        0.53216    0.68888    0.72776    1.000
    Si3953   Si       0.56869    0.67115    0.74050    1.000
    N3954    N        0.60211    0.69906    0.73243    1.000
    Si3955   Si       0.63784    0.71060    0.75681    1.000
    N3956    N        0.66164    0.67370    0.75700    1.000
    Si3957   Si       0.67905    0.68399    0.71791    1.000
    N3958    N        0.72239    0.67881    0.72570    1.000
    Si3959   Si       0.72482    0.64016    0.70629    1.000
    N3960    N        0.66909    0.72530    0.72669    1.000
    N3961    N        0.57260    0.58810    0.79740    1.000
    N3962    N        0.53373    0.53094    0.78221    1.000
    Si3963   Si       0.59465    0.62295    0.78382    1.000
    N3964    N        0.60235    0.52239    0.77308    1.000
    Si3965   Si       0.54659    0.56890    0.76767    1.000
    Si3966   Si       0.50343    0.50858    0.76002    1.000
    N3967    N        0.67426    0.52845    0.76856    1.000
    N3968    N        0.68645    0.61378    0.79227    1.000
    Si3969   Si       0.63951    0.53390    0.79274    1.000
    Si3970   Si       0.72462    0.61277    0.81247    1.000
    Si3971   Si       0.70997    0.51405    0.78686    1.000
    Si3972   Si       0.60435    0.74838    0.79764    1.000
    N3973    N        0.57099    0.66097    0.78531    1.000
    Si3974   Si       0.53217    0.67488    0.80507    1.000
    N3975    N        0.50695    0.70737    0.78887    1.000
    N3976    N        0.56269    0.75167    0.78977    1.000
    Si3977   Si       0.52896    0.73638    0.81549    1.000
    N3978    N        0.62117    0.63677    0.81426    1.000
    N3979    N        0.61940    0.70758    0.80001    1.000
    Si3980   Si       0.59151    0.56913    0.83320    1.000
    N3981    N        0.57408    0.52937    0.83602    1.000
    N3982    N        0.49673    0.51230    0.85861    1.000
    N3983    N        0.60022    0.57818    0.87380    1.000
    Si3984   Si       0.54020    0.50955    0.86118    1.000
    N3985    N        0.73826    0.58760    0.84959    1.000
    N3986    N        0.66338    0.61387    0.86338    1.000
    N3987    N        0.70861    0.53033    0.82591    1.000
    Si3988   Si       0.65285    0.60728    0.82022    1.000
    Si3989   Si       0.67794    0.51107    0.84883    1.000
    N3990    N        0.63294    0.56928    0.81639    1.000
    N3991    N        0.55248    0.70082    0.83347    1.000
    N3992    N        0.50959    0.74841    0.86120    1.000
    N3993    N        0.60328    0.67896    0.86556    1.000
    Si3994   Si       0.59900    0.67507    0.82019    1.000
    Si3995   Si       0.56242    0.69276    0.87556    1.000
    N3996    N        0.50029    0.64786    0.81826    1.000
    N3997    N        0.70215    0.72509    0.83848    1.000
    Si3998   Si       0.68003    0.72372    0.87573    1.000
    Si3999   Si       0.69447    0.64192    0.87064    1.000
    N4000    N        0.71808    0.65155    0.83516    1.000
    Si4001   Si       0.73140    0.69331    0.83483    1.000
    Si4002   Si       0.56390    0.57789    0.89961    1.000
    N4003    N        0.53995    0.54203    0.89431    1.000
    N4004    N        0.54095    0.60870    0.88218    1.000
    N4005    N        0.49862    0.61070    0.93658    1.000
    Si4006   Si       0.63416    0.59752    0.89299    1.000
    Si4007   Si       0.66980    0.53840    0.92374    1.000
    N4008    N        0.65416    0.57756    0.92718    1.000
    N4009    N        0.65909    0.52814    0.88343    1.000
    N4010    N        0.72591    0.62836    0.89890    1.000
    Si4011   Si       0.50922    0.63383    0.89736    1.000
    Si4012   Si       0.53603    0.75400    0.89632    1.000
    N4013    N        0.53440    0.67354    0.90274    1.000
    N4014    N        0.50632    0.73407    0.92350    1.000
    N4015    N        0.57120    0.72964    0.89611    1.000
    Si4016   Si       0.61342    0.73870    0.90521    1.000
    N4017    N        0.63043    0.70428    0.92453    1.000
    N4018    N        0.61789    0.63401    0.91174    1.000
    N4019    N        0.71305    0.73404    0.90255    1.000
    N4020    N        0.73400    0.68066    0.93572    1.000
    N4021    N        0.67419    0.67869    0.88140    1.000
    Si4022   Si       0.63204    0.67134    0.89643    1.000
    N4023    N        0.64363    0.74971    0.87700    1.000
    Si4024   Si       0.56326    0.55554    0.97346    1.000
    Si4025   Si       0.59770    0.62037    0.94866    1.000
    N4026    N        0.54284    0.51852    0.95782    1.000
    Si4027   Si       0.50650    0.53100    0.97990    1.000
    N4028    N        0.57990    0.58107    0.94122    1.000
    Si4029   Si       0.52053    0.63316    0.96443    1.000
    N4030    N        0.52496    0.56578    0.99735    1.000
    N4031    N        0.71204    0.54246    0.93743    1.000
    Si4032   Si       0.66533    0.59382    0.96495    1.000
    N4033    N        0.63327    0.61984    0.97635    1.000
    Si4034   Si       0.69661    0.52596    0.98094    1.000
    N4035    N        0.69881    0.61864    0.96343    1.000
    N4036    N        0.67095    0.56041    0.99133    1.000
    N4037    N        0.66226    0.50837    0.95445    1.000
    N4038    N        0.56335    0.64205    0.96361    1.000
    N4039    N        0.55223    0.70914    0.97269    1.000
    N4040    N        0.49854    0.67262    0.96128    1.000
    Si4041   Si       0.57359    0.67706    0.98958    1.000
    Si4042   Si       0.52437    0.69745    0.93922    1.000
    N4043    N        0.67943    0.68384    0.97937    1.000
    N4044    N        0.61712    0.68182    0.98778    1.000
    Si4045   Si       0.71933    0.69830    0.97454    1.000
    N4046    N        0.71971    0.74020    0.97142    1.000
    N4047    N        0.64773    0.74514    0.98292    1.000
    Si4048   Si       0.64467    0.70653    0.96543    1.000
    Si4049   Si       0.72901    0.63753    0.94113    1.000
    Si4050   Si       0.53327    0.84315    0.03011    1.000
    Si4051   Si       0.59814    0.86696    0.03113    1.000
    N4052    N        0.51766    0.80233    0.03983    1.000
    N4053    N        0.57432    0.82778    0.03779    1.000
    N4054    N        0.50471    0.86806    0.05271    1.000
    Si4055   Si       0.56684    0.78609    0.05202    1.000
    N4056    N        0.55974    0.88448    0.01827    1.000
    Si4057   Si       0.49701    0.79923    0.99719    1.000
    Si4058   Si       0.67128    0.77561    0.01026    1.000
    Si4059   Si       0.72357    0.83706    0.00700    1.000
    N4060    N        0.71228    0.79474    0.00851    1.000
    N4061    N        0.63427    0.84537    0.05218    1.000
    N4062    N        0.74261    0.85155    0.04374    1.000
    Si4063   Si       0.49851    0.91056    0.04185    1.000
    N4064    N        0.51919    0.93724    0.01721    1.000
    Si4065   Si       0.59191    0.93975    0.04001    1.000
    N4066    N        0.52884    0.99663    0.03259    1.000
    N4067    N        0.61194    0.90334    0.05222    1.000
    N4068    N        0.59079    0.93933    0.99641    1.000
    Si4069   Si       0.69267    0.90306    0.01489    1.000
    Si4070   Si       0.65165    0.96979    0.01749    1.000
    N4071    N        0.68315    0.98748    0.04115    1.000
    N4072    N        0.65827    0.92861    0.00231    1.000
    N4073    N        0.62072    0.96922    0.04799    1.000
    N4074    N        0.72841    0.92555    0.01862    1.000
    N4075    N        0.55169    0.78581    0.09468    1.000
    N4076    N        0.61132    0.77870    0.06420    1.000
    N4077    N        0.71899    0.76767    0.10002    1.000
    Si4078   Si       0.62598    0.81617    0.08244    1.000
    N4079    N        0.66693    0.81340    0.10311    1.000
    N4080    N        0.72252    0.86164    0.10889    1.000
    N4081    N        0.65047    0.88205    0.11025    1.000
    Si4082   Si       0.72697    0.88166    0.07177    1.000
    N4083    N        0.56226    0.94417    0.07247    1.000
    Si4084   Si       0.52546    0.96655    0.06293    1.000
    N4085    N        0.49644    0.93493    0.07884    1.000
    N4086    N        0.52965    0.99833    0.09543    1.000
    Si4087   Si       0.57130    0.92978    0.11222    1.000
    N4088    N        0.74033    0.98035    0.07724    1.000
    N4089    N        0.61227    0.00552    0.10314    1.000
    Si4090   Si       0.64717    0.88356    0.06641    1.000
    N4091    N        0.67347    0.95802    0.10135    1.000
    N4092    N        0.68815    0.89377    0.05702    1.000
    Si4093   Si       0.63132    0.96978    0.09038    1.000
    Si4094   Si       0.69895    0.99017    0.08197    1.000
    Si4095   Si       0.53773    0.87060    0.14415    1.000
    N4096    N        0.54541    0.82719    0.15595    1.000
    N4097    N        0.59105    0.76923    0.14820    1.000
    Si4098   Si       0.57090    0.80246    0.12761    1.000
    Si4099   Si       0.61031    0.87122    0.12697    1.000
    N4100    N        0.50291    0.87820    0.11945    1.000
    N4101    N        0.60198    0.83103    0.11403    1.000
    N4102    N        0.67854    0.84583    0.16478    1.000
    N4103    N        0.66578    0.77580    0.16052    1.000
    Si4104   Si       0.68175    0.84986    0.12143    1.000
    Si4105   Si       0.68047    0.77577    0.11926    1.000
    N4106    N        0.61607    0.87889    0.17104    1.000
    N4107    N        0.57068    0.88778    0.12433    1.000
    Si4108   Si       0.52651    0.98696    0.13512    1.000
    N4109    N        0.53505    0.94146    0.13616    1.000
    Si4110   Si       0.49690    0.92190    0.12152    1.000
    N4111    N        0.61535    0.93709    0.11638    1.000
    Si4112   Si       0.65742    0.92338    0.12580    1.000
    N4113    N        0.66676    0.91913    0.16767    1.000
    N4114    N        0.54934    0.77696    0.20641    1.000
    Si4115   Si       0.52937    0.81306    0.19398    1.000
    Si4116   Si       0.52124    0.87695    0.22209    1.000
    N4117    N        0.48828    0.79999    0.18834    1.000
    N4118    N        0.52416    0.83505    0.23203    1.000
    N4119    N        0.65259    0.81438    0.22126    1.000
    Si4120   Si       0.67965    0.80815    0.18741    1.000
    N4121    N        0.71969    0.80037    0.20427    1.000
    N4122    N        0.67248    0.87796    0.22539    1.000
    Si4123   Si       0.65920    0.87990    0.18406    1.000
    Si4124   Si       0.58251    0.89636    0.19186    1.000
    N4125    N        0.61188    0.99903    0.20417    1.000
    Si4126   Si       0.53891    0.93686    0.18071    1.000
    N4127    N        0.53623    0.89258    0.18231    1.000
    N4128    N        0.57945    0.93949    0.19704    1.000
    Si4129   Si       0.60812    0.96162    0.22359    1.000
    Si4130   Si       0.51752    0.00285    0.20440    1.000
    N4131    N        0.51241    0.95931    0.20697    1.000
    N4132    N        0.54718    0.00815    0.17065    1.000
    N4133    N        0.67817    0.98956    0.19564    1.000
    N4134    N        0.71296    0.93276    0.21938    1.000
    Si4135   Si       0.67755    0.94697    0.20095    1.000
    Si4136   Si       0.71831    0.00907    0.19577    1.000
    Si4137   Si       0.58472    0.85108    0.25981    1.000
    N4138    N        0.52455    0.78913    0.27852    1.000
    N4139    N        0.59016    0.81067    0.24818    1.000
    Si4140   Si       0.55675    0.78201    0.24790    1.000
    Si4141   Si       0.49691    0.81969    0.26409    1.000
    N4142    N        0.57653    0.87542    0.22853    1.000
    N4143    N        0.62578    0.86016    0.27684    1.000
    Si4144   Si       0.65966    0.84566    0.25071    1.000
    N4145    N        0.69584    0.82325    0.26558    1.000
    N4146    N        0.64945    0.76966    0.27388    1.000
    Si4147   Si       0.62651    0.78502    0.23968    1.000
    Si4148   Si       0.73122    0.82607    0.23935    1.000
    Si4149   Si       0.68935    0.78544    0.28375    1.000
    N4150    N        0.72601    0.76094    0.27684    1.000
    N4151    N        0.74237    0.86801    0.23947    1.000
    Si4152   Si       0.55220    0.98947    0.27147    1.000
    N4153    N        0.51247    0.96953    0.27400    1.000
    N4154    N        0.51549    0.90243    0.25568    1.000
    N4155    N        0.58949    0.96713    0.26242    1.000
    Si4156   Si       0.49977    0.94136    0.24459    1.000
    N4157    N        0.69310    0.97846    0.26647    1.000
    Si4158   Si       0.70913    0.89418    0.24100    1.000
    N4159    N        0.64455    0.94254    0.23282    1.000
    N4160    N        0.69328    0.90868    0.27947    1.000
    Si4161   Si       0.66783    0.94464    0.27098    1.000
    Si4162   Si       0.52575    0.76847    0.31613    1.000
    Si4163   Si       0.55518    0.83771    0.33195    1.000
    N4164    N        0.54926    0.79533    0.34059    1.000
    N4165    N        0.59570    0.84782    0.34261    1.000
    N4166    N        0.55391    0.85410    0.29107    1.000
    Si4167   Si       0.51961    0.88338    0.29682    1.000
    N4168    N        0.52159    0.86299    0.34382    1.000
    N4169    N        0.61590    0.77223    0.33323    1.000
    Si4170   Si       0.61606    0.87633    0.31642    1.000
    Si4171   Si       0.72992    0.76621    0.33952    1.000
    N4172    N        0.69296    0.78856    0.32707    1.000
    N4173    N        0.71378    0.86048    0.32502    1.000
    Si4174   Si       0.69342    0.82867    0.34612    1.000
    Si4175   Si       0.65606    0.77706    0.34815    1.000
    N4176    N        0.65319    0.88385    0.33780    1.000
    N4177    N        0.52549    0.92537    0.32060    1.000
    Si4178   Si       0.56411    0.93099    0.33949    1.000
    N4179    N        0.57991    0.97087    0.32926    1.000
    N4180    N        0.59224    0.91180    0.31170    1.000
    Si4181   Si       0.49811    0.96074    0.31351    1.000
    Si4182   Si       0.60505    0.95204    0.30001    1.000
    N4183    N        0.50648    0.98968    0.34486    1.000
    Si4184   Si       0.59416    0.00588    0.34667    1.000
    Si4185   Si       0.66537    0.95483    0.34737    1.000
    N4186    N        0.64676    0.94952    0.30853    1.000
    Si4187   Si       0.68983    0.89579    0.32007    1.000
    N4188    N        0.70422    0.93040    0.34461    1.000
    N4189    N        0.59376    0.80234    0.39225    1.000
    Si4190   Si       0.58261    0.77610    0.36075    1.000
    Si4191   Si       0.61934    0.83545    0.37614    1.000
    N4192    N        0.65721    0.81660    0.36799    1.000
    N4193    N        0.72487    0.82836    0.37622    1.000
    N4194    N        0.62570    0.86892    0.40058    1.000
    N4195    N        0.73384    0.76173    0.38214    1.000
    Si4196   Si       0.48908    0.88513    0.36554    1.000
    N4197    N        0.57635    0.92689    0.38089    1.000
    N4198    N        0.50967    0.91189    0.39333    1.000
    Si4199   Si       0.60772    0.95246    0.39748    1.000
    Si4200   Si       0.55119    0.90552    0.40691    1.000
    N4201    N        0.61480    0.99495    0.38556    1.000
    Si4202   Si       0.65448    0.89390    0.38003    1.000
    N4203    N        0.69443    0.89098    0.39643    1.000
    N4204    N        0.64266    0.93512    0.37950    1.000
    N4205    N        0.68317    0.99341    0.35315    1.000
    Si4206   Si       0.72544    0.91876    0.38206    1.000
    Si4207   Si       0.51190    0.77988    0.44839    1.000
    Si4208   Si       0.58707    0.79426    0.43492    1.000
    N4209    N        0.56004    0.86662    0.42358    1.000
    N4210    N        0.54713    0.80422    0.44750    1.000
    Si4211   Si       0.60385    0.86608    0.43723    1.000
    Si4212   Si       0.53869    0.84711    0.45440    1.000
    N4213    N        0.49823    0.85656    0.46235    1.000
    N4214    N        0.61327    0.82450    0.45286    1.000
    N4215    N        0.68148    0.84982    0.45568    1.000
    Si4216   Si       0.51873    0.00193    0.45075    1.000
    Si4217   Si       0.50400    0.94193    0.42254    1.000
    N4218    N        0.54390    0.93170    0.44103    1.000
    N4219    N        0.50758    0.98321    0.41239    1.000
    N4220    N        0.60835    0.96184    0.44154    1.000
    Si4221   Si       0.62956    0.00613    0.42956    1.000
    Si4222   Si       0.69704    0.88771    0.44001    1.000
    N4223    N        0.73768    0.89683    0.44926    1.000
    N4224    N        0.67507    0.92384    0.45153    1.000
    Si4225   Si       0.63401    0.93495    0.46381    1.000
    N4226    N        0.65568    0.00880    0.46702    1.000
    N4227    N        0.55987    0.86006    0.48923    1.000
    N4228    N        0.50072    0.75744    0.48416    1.000
    Si4229   Si       0.53973    0.84507    0.52499    1.000
    N4230    N        0.68129    0.79230    0.47682    1.000
    N4231    N        0.64012    0.81464    0.51538    1.000
    Si4232   Si       0.64935    0.82131    0.47316    1.000
    N4233    N        0.73493    0.84034    0.49287    1.000
    Si4234   Si       0.71243    0.81844    0.46434    1.000
    Si4235   Si       0.59108    0.88951    0.49972    1.000
    N4236    N        0.57075    0.92719    0.50746    1.000
    Si4237   Si       0.55214    0.99532    0.51978    1.000
    N4238    N        0.54814    0.98518    0.47817    1.000
    Si4239   Si       0.57207    0.94827    0.46804    1.000
    N4240    N        0.60621    0.90052    0.46090    1.000
    Si4241   Si       0.65821    0.98980    0.50440    1.000
    Si4242   Si       0.73831    0.99787    0.48822    1.000
    N4243    N        0.63961    0.95068    0.50200    1.000
    N4244    N        0.70153    0.98593    0.51103    1.000
    Si4245   Si       0.55649    0.77482    0.54818    1.000
    N4246    N        0.59107    0.78774    0.57073    1.000
    N4247    N        0.56704    0.86183    0.55145    1.000
    N4248    N        0.53044    0.80159    0.52757    1.000
    N4249    N        0.50350    0.86802    0.53260    1.000
    N4250    N        0.68377    0.85490    0.54187    1.000
    Si4251   Si       0.64213    0.84825    0.54238    1.000
    N4252    N        0.71210    0.79059    0.53890    1.000
    Si4253   Si       0.72279    0.83537    0.53472    1.000
    Si4254   Si       0.67090    0.78416    0.51962    1.000
    N4255    N        0.57025    0.97695    0.55275    1.000
    Si4256   Si       0.56010    0.93580    0.55085    1.000
    N4257    N        0.51635    0.93522    0.55396    1.000
    Si4258   Si       0.49635    0.89615    0.56427    1.000
    N4259    N        0.51283    0.00479    0.53525    1.000
    Si4260   Si       0.65189    0.92195    0.53144    1.000
    N4261    N        0.62962    0.88512    0.52089    1.000
    N4262    N        0.69550    0.92552    0.54189    1.000
    N4263    N        0.63529    0.93354    0.56848    1.000
    Si4264   Si       0.71782    0.96188    0.54372    1.000
    N4265    N        0.70874    0.99083    0.57412    1.000
    Si4266   Si       0.70545    0.88773    0.56088    1.000
    N4267    N        0.57263    0.84235    0.61544    1.000
    Si4268   Si       0.60382    0.81540    0.60101    1.000
    Si4269   Si       0.55906    0.87658    0.59325    1.000
    N4270    N        0.61128    0.79162    0.63608    1.000
    N4271    N        0.51532    0.87908    0.59908    1.000
    Si4272   Si       0.67792    0.84435    0.60513    1.000
    N4273    N        0.71804    0.82668    0.59618    1.000
    N4274    N        0.70259    0.76367    0.61170    1.000
    N4275    N        0.63828    0.83742    0.58408    1.000
    Si4276   Si       0.72619    0.78654    0.58191    1.000
    N4277    N        0.60673    0.97639    0.61660    1.000
    N4278    N        0.54006    0.00013    0.60818    1.000
    Si4279   Si       0.58009    0.99942    0.58828    1.000
    Si4280   Si       0.61000    0.93521    0.60394    1.000
    N4281    N        0.57468    0.91722    0.58727    1.000
    N4282    N        0.69262    0.88576    0.60233    1.000
    Si4283   Si       0.71838    0.90785    0.62969    1.000
    N4284    N        0.67652    0.98333    0.63307    1.000
    Si4285   Si       0.71681    0.97819    0.61412    1.000
    N4286    N        0.73781    0.94087    0.60838    1.000
    N4287    N        0.53781    0.82478    0.68146    1.000
    Si4288   Si       0.56720    0.84632    0.65890    1.000
    N4289    N        0.50301    0.77191    0.67973    1.000
    Si4290   Si       0.49560    0.81565    0.67629    1.000
    N4291    N        0.57718    0.76079    0.69336    1.000
    N4292    N        0.61075    0.84856    0.67361    1.000
    Si4293   Si       0.63513    0.81290    0.66513    1.000
    N4294    N        0.70375    0.76960    0.68690    1.000
    Si4295   Si       0.69852    0.78855    0.64591    1.000
    N4296    N        0.63792    0.78639    0.70008    1.000
    N4297    N        0.67210    0.82211    0.64351    1.000
    N4298    N        0.49381    0.88687    0.66810    1.000
    N4299    N        0.56564    0.88902    0.66232    1.000
    Si4300   Si       0.53046    0.91030    0.67435    1.000
    N4301    N        0.57190    0.99105    0.67688    1.000
    N4302    N        0.52371    0.94971    0.65810    1.000
    Si4303   Si       0.53731    0.99104    0.65060    1.000
    Si4304   Si       0.61084    0.99053    0.65818    1.000
    Si4305   Si       0.60711    0.89512    0.66979    1.000
    N4306    N        0.62859    0.91848    0.64131    1.000
    Si4307   Si       0.66004    0.94855    0.65321    1.000
    N4308    N        0.63946    0.97198    0.68381    1.000
    N4309    N        0.69650    0.92688    0.66150    1.000
    Si4310   Si       0.71519    0.93262    0.69960    1.000
    N4311    N        0.57196    0.79988    0.74185    1.000
    Si4312   Si       0.60414    0.77359    0.72584    1.000
    N4313    N        0.51468    0.77617    0.74054    1.000
    Si4314   Si       0.54295    0.78681    0.70517    1.000
    N4315    N        0.58267    0.87582    0.75823    1.000
    Si4316   Si       0.67377    0.76917    0.71764    1.000
    N4317    N        0.68167    0.79295    0.75203    1.000
    Si4318   Si       0.72241    0.80524    0.75856    1.000
    N4319    N        0.53832    0.91802    0.71785    1.000
    Si4320   Si       0.57839    0.91189    0.73356    1.000
    Si4321   Si       0.50208    0.93100    0.73933    1.000
    N4322    N        0.61406    0.91059    0.70930    1.000
    Si4323   Si       0.73482    0.99482    0.73976    1.000
    N4324    N        0.70581    0.97376    0.71018    1.000
    Si4325   Si       0.64906    0.91809    0.73545    1.000
    Si4326   Si       0.66355    0.98371    0.71629    1.000
    N4327    N        0.64652    0.95916    0.75037    1.000
    N4328    N        0.69185    0.90728    0.72450    1.000
    N4329    N        0.54745    0.82754    0.79069    1.000
    Si4330   Si       0.53913    0.78594    0.77474    1.000
    N4331    N        0.50847    0.77452    0.80439    1.000
    Si4332   Si       0.58306    0.83341    0.76567    1.000
    Si4333   Si       0.52630    0.85713    0.81391    1.000
    N4334    N        0.62518    0.82585    0.77503    1.000
    N4335    N        0.71917    0.84641    0.77574    1.000
    Si4336   Si       0.65047    0.79066    0.78640    1.000
    Si4337   Si       0.63337    0.86441    0.79459    1.000
    N4338    N        0.73994    0.76993    0.77772    1.000
    N4339    N        0.69057    0.79219    0.81752    1.000
    Si4340   Si       0.72063    0.76123    0.81835    1.000
    N4341    N        0.62463    0.75648    0.76031    1.000
    Si4342   Si       0.51337    0.00115    0.76954    1.000
    Si4343   Si       0.60756    0.97464    0.76885    1.000
    N4344    N        0.53684    0.89736    0.80504    1.000
    N4345    N        0.58396    0.93683    0.76913    1.000
    N4346    N        0.50901    0.95758    0.77309    1.000
    Si4347   Si       0.57738    0.90195    0.79439    1.000
    N4348    N        0.60319    0.98415    0.81111    1.000
    Si4349   Si       0.51613    0.93477    0.81098    1.000
    N4350    N        0.65456    0.88976    0.76829    1.000
    Si4351   Si       0.73781    0.94894    0.79931    1.000
    N4352    N        0.72379    0.90778    0.78628    1.000
    N4353    N        0.72011    0.98228    0.77733    1.000
    Si4354   Si       0.69907    0.88301    0.76133    1.000
    N4355    N        0.54455    0.85192    0.85468    1.000
    Si4356   Si       0.58891    0.85421    0.85681    1.000
    N4357    N        0.60302    0.81526    0.87423    1.000
    N4358    N        0.60150    0.87937    0.82130    1.000
    Si4359   Si       0.63735    0.79128    0.85958    1.000
    Si4360   Si       0.69101    0.83188    0.84006    1.000
    N4361    N        0.72564    0.85805    0.84476    1.000
    N4362    N        0.66065    0.85929    0.82760    1.000
    N4363    N        0.67004    0.81515    0.87449    1.000
    N4364    N        0.62427    0.78021    0.81981    1.000
    N4365    N        0.54284    0.95622    0.83607    1.000
    Si4366   Si       0.56438    0.99209    0.82847    1.000
    Si4367   Si       0.53548    0.96571    0.87925    1.000
    N4368    N        0.49772    0.99507    0.87886    1.000
    Si4369   Si       0.70849    0.98198    0.85516    1.000
    N4370    N        0.72881    0.94574    0.84209    1.000
    Si4371   Si       0.63286    0.97569    0.84326    1.000
    N4372    N        0.62695    0.93621    0.85680    1.000
    Si4373   Si       0.64036    0.89376    0.85458    1.000
    N4374    N        0.62897    0.00449    0.87616    1.000
    N4375    N        0.67204    0.98650    0.82795    1.000
    N4376    N        0.50904    0.85329    0.92085    1.000
    N4377    N        0.54374    0.79604    0.89929    1.000
    Si4378   Si       0.58424    0.80568    0.91148    1.000
    Si4379   Si       0.52222    0.82964    0.88510    1.000
    N4380    N        0.60647    0.77435    0.93043    1.000
    Si4381   Si       0.60627    0.87061    0.93109    1.000
    N4382    N        0.60746    0.88250    0.88686    1.000
    N4383    N        0.71231    0.84927    0.91464    1.000
    Si4384   Si       0.67639    0.82624    0.91608    1.000
    Si4385   Si       0.71456    0.88002    0.88293    1.000
    Si4386   Si       0.71305    0.76189    0.93534    1.000
    N4387    N        0.57053    0.95041    0.90383    1.000
    N4388    N        0.51073    0.92994    0.89060    1.000
    Si4389   Si       0.60577    0.92593    0.89421    1.000
    Si4390   Si       0.52181    0.92352    0.93344    1.000
    N4391    N        0.61274    0.91757    0.93908    1.000
    N4392    N        0.69401    0.99001    0.89350    1.000
    Si4393   Si       0.72675    0.98861    0.92234    1.000
    N4394    N        0.67416    0.89492    0.88193    1.000
    Si4395   Si       0.53819    0.85326    0.95290    1.000
    N4396    N        0.52078    0.83637    0.98804    1.000
    N4397    N        0.50524    0.75585    0.98495    1.000
    N4398    N        0.57616    0.84078    0.93595    1.000
    Si4399   Si       0.63752    0.78028    0.95883    1.000
    Si4400   Si       0.65018    0.84694    0.98159    1.000
    N4401    N        0.64435    0.80655    0.99265    1.000
    N4402    N        0.61913    0.87351    0.99197    1.000
    N4403    N        0.68865    0.86380    0.99503    1.000
    N4404    N        0.67588    0.78606    0.93660    1.000
    N4405    N        0.64395    0.84662    0.93841    1.000
    N4406    N        0.54444    0.89515    0.95658    1.000
    Si4407   Si       0.57970    0.95706    0.94846    1.000
    N4408    N        0.53714    0.95713    0.96010    1.000
    Si4409   Si       0.51391    0.97816    0.99285    1.000
    N4410    N        0.59856    0.99888    0.94109    1.000
    Si4411   Si       0.55041    0.91941    0.99447    1.000
    N4412    N        0.73009    0.96301    0.95657    1.000
    Si4413   Si       0.62340    0.91489    0.98118    1.000
    N4414    N        0.64952    0.00356    0.98945    1.000
    N4415    N        0.82172    0.09766    0.01603    1.000
    N4416    N        0.74920    0.09884    0.01477    1.000
    Si4417   Si       0.78459    0.08434    0.99845    1.000
    N4418    N        0.94022    0.03534    0.04830    1.000
    N4419    N        0.87215    0.03634    0.04193    1.000
    Si4420   Si       0.92239    0.10586    0.00872    1.000
    Si4421   Si       0.94034    0.03025    0.00599    1.000
    N4422    N        0.90669    0.10106    0.04963    1.000
    N4423    N        0.95921    0.12731    0.00411    1.000
    Si4424   Si       0.77977    0.21906    0.01732    1.000
    N4425    N        0.78851    0.18952    0.04917    1.000
    N4426    N        0.85339    0.20788    0.04911    1.000
    Si4427   Si       0.95812    0.16439    0.03064    1.000
    N4428    N        0.90926    0.23153    0.01040    1.000
    N4429    N        0.97455    0.20295    0.01684    1.000
    N4430    N        0.91460    0.16672    0.03202    1.000
    Si4431   Si       0.88420    0.19790    0.02344    1.000
    N4432    N        0.83140    0.07654    0.08548    1.000
    Si4433   Si       0.83569    0.03830    0.06459    1.000
    Si4434   Si       0.82176    0.11054    0.05872    1.000
    N4435    N        0.85086    0.01191    0.09587    1.000
    N4436    N        0.78458    0.12822    0.07852    1.000
    N4437    N        0.75114    0.07115    0.11424    1.000
    N4438    N        0.79717    0.02098    0.05592    1.000
    Si4439   Si       0.77823    0.10577    0.11444    1.000
    N4440    N        0.98403    0.03778    0.10783    1.000
    N4441    N        0.90878    0.04643    0.10086    1.000
    Si4442   Si       0.94657    0.02258    0.08971    1.000
    Si4443   Si       0.90542    0.05857    0.05833    1.000
    N4444    N        0.95324    0.10038    0.10883    1.000
    N4445    N        0.75285    0.24777    0.06865    1.000
    N4446    N        0.81866    0.20093    0.10475    1.000
    Si4447   Si       0.75910    0.16203    0.06733    1.000
    Si4448   Si       0.78574    0.22993    0.09431    1.000
    Si4449   Si       0.82745    0.17852    0.06636    1.000
    Si4450   Si       0.84950    0.24272    0.07349    1.000
    N4451    N        0.85057    0.14286    0.06356    1.000
    N4452    N        0.74781    0.19143    0.10143    1.000
    Si4453   Si       0.95418    0.14317    0.10217    1.000
    N4454    N        0.97755    0.15358    0.06752    1.000
    Si4455   Si       0.90519    0.20040    0.11243    1.000
    Si4456   Si       0.89481    0.14064    0.06431    1.000
    N4457    N        0.88138    0.23498    0.10151    1.000
    N4458    N        0.91530    0.16096    0.09540    1.000
    N4459    N        0.80979    0.10506    0.14273    1.000
    Si4460   Si       0.84444    0.08289    0.12625    1.000
    Si4461   Si       0.75297    0.04110    0.14425    1.000
    N4462    N        0.85320    0.04779    0.15090    1.000
    Si4463   Si       0.91465    0.08389    0.12307    1.000
    Si4464   Si       0.87840    0.02387    0.12465    1.000
    N4465    N        0.87994    0.10781    0.12910    1.000
    N4466    N        0.92428    0.06475    0.16232    1.000
    N4467    N        0.74392    0.13024    0.13043    1.000
    Si4468   Si       0.75200    0.16833    0.14194    1.000
    N4469    N        0.79055    0.16777    0.15997    1.000
    N4470    N        0.77973    0.23341    0.14140    1.000
    Si4471   Si       0.81249    0.20630    0.14889    1.000
    N4472    N        0.97466    0.15751    0.13744    1.000
    Si4473   Si       0.94518    0.23906    0.15992    1.000
    Si4474   Si       0.88616    0.14153    0.15578    1.000
    N4475    N        0.89324    0.18498    0.15106    1.000
    N4476    N        0.93925    0.22659    0.11978    1.000
    N4477    N        0.79885    0.11457    0.21022    1.000
    Si4478   Si       0.79085    0.07088    0.21456    1.000
    Si4479   Si       0.84317    0.02284    0.18623    1.000
    N4480    N        0.82476    0.04351    0.21893    1.000
    N4481    N        0.76884    0.05397    0.18183    1.000
    Si4482   Si       0.94736    0.09642    0.18298    1.000
    Si4483   Si       0.91758    0.02581    0.17982    1.000
    N4484    N        0.94753    0.01990    0.20798    1.000
    N4485    N        0.88344    0.01663    0.20611    1.000
    N4486    N        0.93918    0.08949    0.22630    1.000
    N4487    N        0.92546    0.13306    0.17337    1.000
    N4488    N        0.85380    0.14092    0.18275    1.000
    Si4489   Si       0.86176    0.15324    0.22303    1.000
    Si4490   Si       0.81187    0.13250    0.17335    1.000
    N4491    N        0.84161    0.21921    0.17600    1.000
    Si4492   Si       0.88357    0.21199    0.18475    1.000
    Si4493   Si       0.95618    0.16400    0.17569    1.000
    N4494    N        0.88934    0.18750    0.22055    1.000
    N4495    N        0.90499    0.24851    0.17681    1.000
    N4496    N        0.96264    0.20650    0.18198    1.000
    N4497    N        0.98426    0.14401    0.20777    1.000
    N4498    N        0.76589    0.07980    0.25236    1.000
    Si4499   Si       0.83242    0.02802    0.25897    1.000
    N4500    N        0.83672    0.06784    0.27806    1.000
    Si4501   Si       0.85143    0.10591    0.28358    1.000
    N4502    N        0.79269    0.02217    0.27709    1.000
    Si4503   Si       0.79122    0.06494    0.28491    1.000
    N4504    N        0.81487    0.12808    0.28232    1.000
    N4505    N        0.92498    0.03351    0.26832    1.000
    Si4506   Si       0.92002    0.11541    0.25577    1.000
    Si4507   Si       0.95252    0.04955    0.24130    1.000
    N4508    N        0.87648    0.12260    0.24996    1.000
    Si4509   Si       0.79595    0.14072    0.24447    1.000
    N4510    N        0.75382    0.15006    0.25414    1.000
    N4511    N        0.81613    0.24525    0.25734    1.000
    Si4512   Si       0.82825    0.20358    0.26231    1.000
    Si4513   Si       0.75185    0.18611    0.27881    1.000
    Si4514   Si       0.77471    0.25383    0.26822    1.000
    N4515    N        0.74482    0.22416    0.25795    1.000
    N4516    N        0.82317    0.17049    0.23262    1.000
    Si4517   Si       0.97366    0.22834    0.27537    1.000
    Si4518   Si       0.90485    0.18735    0.26120    1.000
    N4519    N        0.92960    0.21986    0.27391    1.000
    N4520    N        0.86647    0.19031    0.28170    1.000
    N4521    N        0.93668    0.15653    0.25774    1.000
    Si4522   Si       0.97765    0.16268    0.24672    1.000
    N4523    N        0.78806    0.08064    0.32440    1.000
    Si4524   Si       0.75667    0.10723    0.33245    1.000
    N4525    N        0.86126    0.10245    0.32677    1.000
    N4526    N        0.96477    0.04547    0.32442    1.000
    Si4527   Si       0.90256    0.11359    0.32764    1.000
    Si4528   Si       0.92470    0.05243    0.30770    1.000
    N4529    N        0.89320    0.04072    0.34059    1.000
    N4530    N        0.92075    0.09306    0.29358    1.000
    N4531    N        0.76911    0.14687    0.33204    1.000
    Si4532   Si       0.80570    0.15687    0.31524    1.000
    N4533    N        0.83561    0.16912    0.34327    1.000
    N4534    N        0.79701    0.18967    0.28774    1.000
    Si4535   Si       0.87283    0.18579    0.32381    1.000
    Si4536   Si       0.90573    0.24552    0.30044    1.000
    N4537    N        0.89257    0.22214    0.33644    1.000
    N4538    N        0.90299    0.15552    0.32497    1.000
    N4539    N        0.81248    0.11536    0.37912    1.000
    N4540    N        0.82926    0.04744    0.36821    1.000
    Si4541   Si       0.77675    0.10568    0.40352    1.000
    N4542    N        0.74289    0.09852    0.37391    1.000
    Si4543   Si       0.86021    0.01778    0.35919    1.000
    N4544    N        0.74454    0.01721    0.38256    1.000
    Si4545   Si       0.82459    0.08611    0.35020    1.000
    N4546    N        0.87883    0.01455    0.39824    1.000
    Si4547   Si       0.96119    0.12266    0.37978    1.000
    N4548    N        0.94248    0.03369    0.38391    1.000
    Si4549   Si       0.90950    0.06344    0.37544    1.000
    N4550    N        0.92446    0.10140    0.36297    1.000
    Si4551   Si       0.97848    0.02748    0.36150    1.000
    N4552    N        0.74301    0.25156    0.37302    1.000
    Si4553   Si       0.81395    0.16254    0.38147    1.000
    N4554    N        0.78144    0.19345    0.37860    1.000
    Si4555   Si       0.76382    0.22587    0.40142    1.000
    Si4556   Si       0.74809    0.17784    0.35082    1.000
    N4557    N        0.90137    0.18602    0.39711    1.000
    N4558    N        0.86641    0.25039    0.39565    1.000
    N4559    N        0.93843    0.23637    0.38462    1.000
    Si4560   Si       0.94330    0.19505    0.40213    1.000
    Si4561   Si       0.89514    0.22402    0.37891    1.000
    N4562    N        0.96563    0.16663    0.37804    1.000
    N4563    N        0.83886    0.05419    0.44119    1.000
    N4564    N        0.77998    0.06415    0.41686    1.000
    N4565    N        0.81475    0.11889    0.46367    1.000
    Si4566   Si       0.74336    0.04056    0.41776    1.000
    Si4567   Si       0.81518    0.03824    0.40868    1.000
    N4568    N        0.89632    0.07557    0.41484    1.000
    Si4569   Si       0.87958    0.03722    0.43524    1.000
    Si4570   Si       0.91584    0.10422    0.43726    1.000
    N4571    N        0.95347    0.12097    0.42259    1.000
    Si4572   Si       0.80538    0.15966    0.44723    1.000
    N4573    N        0.77329    0.14529    0.42102    1.000
    N4574    N        0.83722    0.16918    0.41760    1.000
    N4575    N        0.78669    0.25322    0.42748    1.000
    N4576    N        0.73564    0.20668    0.42866    1.000
    N4577    N        0.95015    0.18590    0.44482    1.000
    Si4578   Si       0.87829    0.17336    0.43055    1.000
    N4579    N        0.88368    0.19981    0.46527    1.000
    N4580    N        0.89148    0.13923    0.45131    1.000
    Si4581   Si       0.97789    0.15265    0.44209    1.000
    Si4582   Si       0.78590    0.10841    0.49411    1.000
    N4583    N        0.75720    0.02791    0.51228    1.000
    N4584    N        0.81091    0.07343    0.50953    1.000
    N4585    N        0.74726    0.09143    0.48691    1.000
    Si4586   Si       0.83644    0.08283    0.47157    1.000
    Si4587   Si       0.79750    0.03611    0.52645    1.000
    N4588    N        0.87123    0.09672    0.49581    1.000
    Si4589   Si       0.90290    0.06448    0.50271    1.000
    N4590    N        0.93047    0.08672    0.47442    1.000
    N4591    N        0.89350    0.02824    0.47443    1.000
    Si4592   Si       0.97441    0.09348    0.47211    1.000
    N4593    N        0.93237    0.03738    0.52081    1.000
    N4594    N        0.99036    0.07384    0.50904    1.000
    Si4595   Si       0.84812    0.20567    0.49076    1.000
    N4596    N        0.84893    0.16403    0.50820    1.000
    N4597    N        0.77304    0.25491    0.50003    1.000
    N4598    N        0.78716    0.14186    0.52146    1.000
    N4599    N        0.84057    0.25326    0.47310    1.000
    Si4600   Si       0.79583    0.23990    0.46776    1.000
    N4601    N        0.80803    0.19811    0.46996    1.000
    Si4602   Si       0.92326    0.18992    0.47898    1.000
    N4603    N        0.93795    0.22789    0.49725    1.000
    Si4604   Si       0.88110    0.14190    0.49351    1.000
    N4605    N        0.91473    0.16272    0.51277    1.000
    N4606    N        0.98345    0.13538    0.48113    1.000
    N4607    N        0.79452    0.03795    0.56942    1.000
    N4608    N        0.84524    0.11643    0.56058    1.000
    N4609    N        0.75588    0.09233    0.55301    1.000
    Si4610   Si       0.84674    0.08515    0.53221    1.000
    Si4611   Si       0.86793    0.01450    0.54329    1.000
    N4612    N        0.87543    0.05516    0.54025    1.000
    Si4613   Si       0.97061    0.04665    0.53628    1.000
    N4614    N        0.96906    0.06448    0.57685    1.000
    Si4615   Si       0.76453    0.13590    0.55771    1.000
    N4616    N        0.85300    0.18016    0.57137    1.000
    Si4617   Si       0.82522    0.15308    0.54629    1.000
    Si4618   Si       0.85942    0.22203    0.56935    1.000
    N4619    N        0.82334    0.24386    0.58096    1.000
    N4620    N        0.86332    0.22942    0.52664    1.000
    Si4621   Si       0.92896    0.15917    0.55499    1.000
    N4622    N        0.96453    0.13466    0.55417    1.000
    N4623    N        0.93984    0.20065    0.56593    1.000
    Si4624   Si       0.96350    0.22155    0.53432    1.000
    N4625    N        0.79751    0.08994    0.61292    1.000
    N4626    N        0.81608    0.02496    0.63722    1.000
    Si4627   Si       0.81898    0.01178    0.59515    1.000
    Si4628   Si       0.80323    0.13111    0.62116    1.000
    Si4629   Si       0.77077    0.06904    0.58647    1.000
    Si4630   Si       0.97309    0.03274    0.60930    1.000
    N4631    N        0.96252    0.12217    0.62534    1.000
    Si4632   Si       0.97330    0.10751    0.58691    1.000
    N4633    N        0.84498    0.14001    0.62935    1.000
    Si4634   Si       0.74827    0.24422    0.62434    1.000
    Si4635   Si       0.80985    0.24178    0.62256    1.000
    N4636    N        0.77654    0.21124    0.63266    1.000
    Si4637   Si       0.86546    0.14278    0.59084    1.000
    N4638    N        0.79263    0.14993    0.58517    1.000
    N4639    N        0.90799    0.14576    0.59069    1.000
    Si4640   Si       0.92617    0.14424    0.63145    1.000
    N4641    N        0.95481    0.25152    0.61253    1.000
    Si4642   Si       0.93055    0.21560    0.60503    1.000
    N4643    N        0.88984    0.23158    0.59996    1.000
    N4644    N        0.93438    0.18835    0.63873    1.000
    N4645    N        0.76307    0.06465    0.66896    1.000
    N4646    N        0.83317    0.08660    0.67214    1.000
    Si4647   Si       0.85907    0.12498    0.66599    1.000
    Si4648   Si       0.80225    0.06646    0.65018    1.000
    Si4649   Si       0.90684    0.08538    0.68505    1.000
    N4650    N        0.89930    0.05272    0.66046    1.000
    N4651    N        0.90199    0.12156    0.66136    1.000
    Si4652   Si       0.98002    0.06598    0.68551    1.000
    Si4653   Si       0.92674    0.02192    0.65082    1.000
    N4654    N        0.96424    0.04532    0.64974    1.000
    N4655    N        0.81158    0.20033    0.68483    1.000
    Si4656   Si       0.78160    0.18228    0.66256    1.000
    N4657    N        0.77973    0.13889    0.65835    1.000
    Si4658   Si       0.83327    0.23832    0.68468    1.000
    N4659    N        0.74694    0.18134    0.69412    1.000
    Si4660   Si       0.74257    0.13676    0.68374    1.000
    N4661    N        0.84411    0.25018    0.64685    1.000
    Si4662   Si       0.95762    0.19369    0.67529    1.000
    N4663    N        0.96877    0.15306    0.68744    1.000
    Si4664   Si       0.90657    0.23836    0.70290    1.000
    N4665    N        0.79802    0.06940    0.72751    1.000
    Si4666   Si       0.75806    0.07149    0.71147    1.000
    N4667    N        0.74496    0.11249    0.72068    1.000
    Si4668   Si       0.83813    0.06678    0.71023    1.000
    N4669    N        0.84416    0.02402    0.70502    1.000
    N4670    N        0.87716    0.08852    0.71789    1.000
    N4671    N        0.89855    0.02260    0.75098    1.000
    Si4672   Si       0.88584    0.06428    0.75566    1.000
    Si4673   Si       0.95738    0.12903    0.72173    1.000
    Si4674   Si       0.88007    0.12959    0.73470    1.000
    N4675    N        0.98204    0.11721    0.75468    1.000
    N4676    N        0.98729    0.03227    0.71258    1.000
    N4677    N        0.94496    0.08769    0.70604    1.000
    N4678    N        0.80832    0.17605    0.74422    1.000
    N4679    N        0.76663    0.23316    0.74381    1.000
    Si4680   Si       0.76682    0.18804    0.73441    1.000
    Si4681   Si       0.83856    0.18565    0.71446    1.000
    N4682    N        0.85668    0.14824    0.70334    1.000
    Si4683   Si       0.87076    0.23828    0.75284    1.000
    N4684    N        0.94315    0.21468    0.70894    1.000
    N4685    N        0.86392    0.22346    0.71284    1.000
    N4686    N        0.92065    0.14557    0.73887    1.000
    Si4687   Si       0.96940    0.22239    0.74456    1.000
    Si4688   Si       0.83525    0.02068    0.79019    1.000
    N4689    N        0.79429    0.03555    0.79538    1.000
    N4690    N        0.79186    0.10956    0.78453    1.000
    Si4691   Si       0.80370    0.07173    0.76965    1.000
    N4692    N        0.84535    0.05840    0.76803    1.000
    N4693    N        0.85941    0.13251    0.77382    1.000
    Si4694   Si       0.89011    0.11704    0.80417    1.000
    Si4695   Si       0.95475    0.09207    0.77663    1.000
    N4696    N        0.91180    0.08976    0.77813    1.000
    N4697    N        0.96566    0.04981    0.77621    1.000
    Si4698   Si       0.93533    0.01769    0.77179    1.000
    N4699    N        0.92773    0.01855    0.81554    1.000
    N4700    N        0.96455    0.09689    0.81815    1.000
    Si4701   Si       0.81880    0.14448    0.77773    1.000
    Si4702   Si       0.76403    0.16864    0.80499    1.000
    N4703    N        0.80788    0.16920    0.81106    1.000
    N4704    N        0.74552    0.16341    0.76660    1.000
    N4705    N        0.83287    0.25494    0.77113    1.000
    Si4706   Si       0.92020    0.17414    0.77281    1.000
    N4707    N        0.91397    0.15249    0.80935    1.000
    N4708    N        0.89091    0.20620    0.77348    1.000
    Si4709   Si       0.89136    0.22225    0.81457    1.000
    N4710    N        0.96213    0.18827    0.77311    1.000
    N4711    N        0.81442    0.09321    0.84668    1.000
    Si4712   Si       0.82849    0.05092    0.85243    1.000
    Si4713   Si       0.84697    0.11987    0.86146    1.000
    N4714    N        0.79114    0.02920    0.86363    1.000
    N4715    N        0.85401    0.02470    0.82933    1.000
    Si4716   Si       0.76676    0.03414    0.82996    1.000
    N4717    N        0.74903    0.07303    0.83096    1.000
    Si4718   Si       0.77692    0.10502    0.82504    1.000
    N4719    N        0.88221    0.10053    0.84415    1.000
    N4720    N        0.94133    0.05735    0.86566    1.000
    Si4721   Si       0.91263    0.09216    0.87236    1.000
    Si4722   Si       0.95732    0.05158    0.82391    1.000
    N4723    N        0.93159    0.13141    0.87125    1.000
    N4724    N        0.75333    0.13976    0.83516    1.000
    Si4725   Si       0.82636    0.19176    0.84356    1.000
    Si4726   Si       0.76686    0.23256    0.85066    1.000
    N4727    N        0.80337    0.21826    0.87141    1.000
    N4728    N        0.85000    0.16271    0.86581    1.000
    N4729    N        0.85026    0.22507    0.82842    1.000
    N4730    N        0.73972    0.24316    0.88060    1.000
    N4731    N        0.74868    0.20648    0.82033    1.000
    N4732    N        0.92151    0.20871    0.84493    1.000
    Si4733   Si       0.93650    0.16616    0.84509    1.000
    Si4734   Si       0.93240    0.24554    0.86549    1.000
    N4735    N        0.98118    0.16330    0.83445    1.000
    N4736    N        0.83887    0.11667    0.90496    1.000
    N4737    N        0.85062    0.04997    0.89001    1.000
    Si4738   Si       0.80334    0.11623    0.93317    1.000
    Si4739   Si       0.85994    0.08105    0.91853    1.000
    N4740    N        0.77197    0.13475    0.91468    1.000
    N4741    N        0.90211    0.08462    0.91374    1.000
    Si4742   Si       0.93807    0.02219    0.88879    1.000
    Si4743   Si       0.96163    0.12917    0.90279    1.000
    N4744    N        0.94135    0.02813    0.93375    1.000
    N4745    N        0.96331    0.09981    0.93729    1.000
    N4746    N        0.83261    0.19544    0.92644    1.000
    Si4747   Si       0.82010    0.23251    0.90812    1.000
    Si4748   Si       0.85231    0.16093    0.90789    1.000
    Si4749   Si       0.74885    0.24130    0.92143    1.000
    N4750    N        0.78919    0.25168    0.93175    1.000
    Si4751   Si       0.92735    0.19032    0.91913    1.000
    N4752    N        0.93460    0.23153    0.90726    1.000
    N4753    N        0.96614    0.17145    0.90833    1.000
    N4754    N        0.89306    0.16425    0.92391    1.000
    Si4755   Si       0.83902    0.02721    0.95845    1.000
    N4756    N        0.78345    0.08498    0.95558    1.000
    N4757    N        0.84983    0.07087    0.95879    1.000
    Si4758   Si       0.77109    0.04301    0.95286    1.000
    Si4759   Si       0.85119    0.10709    0.98511    1.000
    N4760    N        0.76955    0.04141    0.99697    1.000
    N4761    N        0.80305    0.02042    0.93537    1.000
    Si4762   Si       0.98448    0.11286    0.97265    1.000
    N4763    N        0.89101    0.12335    0.98502    1.000
    N4764    N        0.92858    0.06833    0.98704    1.000
    Si4765   Si       0.98346    0.01998    0.94638    1.000
    N4766    N        0.97785    0.01584    0.99083    1.000
    Si4767   Si       0.93139    0.07026    0.94389    1.000
    N4768    N        0.82628    0.13820    0.96560    1.000
    Si4769   Si       0.74864    0.18629    0.96892    1.000
    N4770    N        0.78924    0.19664    0.98087    1.000
    Si4771   Si       0.82881    0.18223    0.96787    1.000
    N4772    N        0.86799    0.18769    0.98437    1.000
    Si4773   Si       0.94644    0.22085    0.99063    1.000
    N4774    N        0.93993    0.18677    0.96112    1.000
    N4775    N        0.96246    0.25442    0.97092    1.000
    Si4776   Si       0.90162    0.16404    0.96730    1.000
    Si4777   Si       0.98277    0.18189    0.94576    1.000
    N4778    N        0.83171    0.32635    0.02063    1.000
    Si4779   Si       0.83059    0.28354    0.01780    1.000
    Si4780   Si       0.75802    0.28065    0.04017    1.000
    Si4781   Si       0.75943    0.35075    0.03360    1.000
    N4782    N        0.79260    0.26196    0.01838    1.000
    N4783    N        0.77551    0.31715    0.05743    1.000
    N4784    N        0.86273    0.27239    0.04406    1.000
    Si4785   Si       0.90296    0.26784    0.03090    1.000
    Si4786   Si       0.92624    0.33451    0.02652    1.000
    N4787    N        0.90959    0.30071    0.00482    1.000
    N4788    N        0.96701    0.31906    0.03634    1.000
    N4789    N        0.93529    0.36977    0.00439    1.000
    N4790    N        0.89616    0.35234    0.05427    1.000
    Si4791   Si       0.73796    0.49189    0.03016    1.000
    Si4792   Si       0.81410    0.40373    0.03203    1.000
    N4793    N        0.77101    0.39139    0.04463    1.000
    N4794    N        0.82094    0.44746    0.02918    1.000
    N4795    N        0.77704    0.49724    0.00897    1.000
    Si4796   Si       0.96728    0.38884    0.02815    1.000
    N4797    N        0.96733    0.42947    0.01415    1.000
    Si4798   Si       0.94827    0.45264    0.04416    1.000
    N4799    N        0.93648    0.49085    0.02844    1.000
    N4800    N        0.84322    0.32725    0.09398    1.000
    Si4801   Si       0.80303    0.30629    0.09197    1.000
    N4802    N        0.81456    0.26337    0.08728    1.000
    Si4803   Si       0.85310    0.34702    0.05446    1.000
    N4804    N        0.97602    0.31156    0.10084    1.000
    N4805    N        0.93058    0.26764    0.06261    1.000
    Si4806   Si       0.97049    0.35481    0.09963    1.000
    Si4807   Si       0.97104    0.28654    0.06417    1.000
    Si4808   Si       0.91656    0.26072    0.10357    1.000
    N4809    N        0.83982    0.38938    0.06244    1.000
    Si4810   Si       0.82651    0.46920    0.06604    1.000
    Si4811   Si       0.84849    0.40713    0.09967    1.000
    N4812    N        0.79739    0.47929    0.09922    1.000
    Si4813   Si       0.75697    0.46731    0.10023    1.000
    N4814    N        0.85467    0.45264    0.09795    1.000
    N4815    N        0.74361    0.45848    0.05953    1.000
    Si4816   Si       0.90015    0.46049    0.09297    1.000
    N4817    N        0.90019    0.50289    0.08624    1.000
    N4818    N        0.95549    0.38091    0.06935    1.000
    N4819    N        0.89172    0.39777    0.10708    1.000
    N4820    N        0.97688    0.46440    0.07334    1.000
    Si4821   Si       0.91274    0.39141    0.06908    1.000
    N4822    N        0.91087    0.43403    0.05821    1.000
    N4823    N        0.85019    0.29748    0.15722    1.000
    N4824    N        0.78285    0.30905    0.13084    1.000
    Si4825   Si       0.80977    0.30810    0.16655    1.000
    Si4826   Si       0.74355    0.32593    0.13986    1.000
    N4827    N        0.74614    0.36815    0.14608    1.000
    Si4828   Si       0.84057    0.37919    0.16526    1.000
    Si4829   Si       0.86908    0.32099    0.12730    1.000
    N4830    N        0.87469    0.35639    0.15128    1.000
    N4831    N        0.96621    0.27520    0.15508    1.000
    N4832    N        0.94267    0.35444    0.13377    1.000
    Si4833   Si       0.94384    0.31253    0.14558    1.000
    N4834    N        0.90657    0.29725    0.12461    1.000
    Si4835   Si       0.90938    0.38092    0.14279    1.000
    N4836    N        0.82142    0.39933    0.13241    1.000
    Si4837   Si       0.79267    0.42460    0.15137    1.000
    Si4838   Si       0.83101    0.47733    0.12664    1.000
    N4839    N        0.81893    0.45854    0.16235    1.000
    N4840    N        0.75733    0.43261    0.12744    1.000
    N4841    N        0.93077    0.45868    0.12442    1.000
    Si4842   Si       0.92341    0.45146    0.16614    1.000
    Si4843   Si       0.97265    0.47022    0.11512    1.000
    N4844    N        0.92623    0.40901    0.17197    1.000
    N4845    N        0.79896    0.28582    0.20180    1.000
    Si4846   Si       0.75752    0.28792    0.20847    1.000
    Si4847   Si       0.76668    0.36340    0.18667    1.000
    N4848    N        0.74516    0.32218    0.18558    1.000
    N4849    N        0.80984    0.35129    0.18101    1.000
    N4850    N        0.76768    0.36428    0.23181    1.000
    N4851    N        0.87028    0.29950    0.22179    1.000
    N4852    N        0.92298    0.31617    0.18559    1.000
    N4853    N        0.96666    0.36468    0.21828    1.000
    Si4854   Si       0.93214    0.33739    0.22078    1.000
    Si4855   Si       0.88806    0.28882    0.18148    1.000
    N4856    N        0.90714    0.37345    0.22609    1.000
    N4857    N        0.77858    0.40773    0.18924    1.000
    Si4858   Si       0.84852    0.44986    0.19315    1.000
    N4859    N        0.84929    0.40660    0.19732    1.000
    Si4860   Si       0.74416    0.42691    0.20970    1.000
    Si4861   Si       0.80426    0.38949    0.22564    1.000
    Si4862   Si       0.94025    0.39916    0.21180    1.000
    Si4863   Si       0.88744    0.49577    0.22023    1.000
    Si4864   Si       0.95825    0.47399    0.22998    1.000
    N4865    N        0.95481    0.47537    0.18470    1.000
    N4866    N        0.88774    0.46679    0.18527    1.000
    N4867    N        0.82476    0.30532    0.26782    1.000
    N4868    N        0.83691    0.36753    0.24594    1.000
    N4869    N        0.75015    0.28699    0.25088    1.000
    Si4870   Si       0.83625    0.34542    0.28176    1.000
    Si4871   Si       0.83061    0.28274    0.23205    1.000
    N4872    N        0.92962    0.31080    0.25394    1.000
    Si4873   Si       0.88658    0.30728    0.26113    1.000
    N4874    N        0.87751    0.26687    0.27657    1.000
    Si4875   Si       0.95849    0.29616    0.28562    1.000
    N4876    N        0.98312    0.26894    0.26352    1.000
    Si4877   Si       0.81189    0.50406    0.24192    1.000
    N4878    N        0.80426    0.48283    0.27871    1.000
    N4879    N        0.80616    0.42522    0.25236    1.000
    Si4880   Si       0.84176    0.44709    0.26335    1.000
    Si4881   Si       0.77760    0.44794    0.27671    1.000
    N4882    N        0.74497    0.45288    0.24809    1.000
    N4883    N        0.84445    0.47639    0.22953    1.000
    Si4884   Si       0.86949    0.39078    0.23253    1.000
    N4885    N        0.94777    0.43297    0.24025    1.000
    N4886    N        0.92615    0.50078    0.23964    1.000
    N4887    N        0.88094    0.42587    0.25597    1.000
    Si4888   Si       0.92096    0.43093    0.27449    1.000
    Si4889   Si       0.77197    0.35300    0.32221    1.000
    N4890    N        0.81635    0.34806    0.31927    1.000
    N4891    N        0.75081    0.31809    0.33432    1.000
    N4892    N        0.74720    0.37772    0.29441    1.000
    N4893    N        0.84832    0.27100    0.33272    1.000
    Si4894   Si       0.83137    0.26824    0.29401    1.000
    N4895    N        0.78429    0.26203    0.31119    1.000
    Si4896   Si       0.76909    0.27710    0.34776    1.000
    N4897    N        0.93617    0.27353    0.31602    1.000
    Si4898   Si       0.89868    0.36817    0.31712    1.000
    N4899    N        0.98465    0.32109    0.30744    1.000
    N4900    N        0.87894    0.33921    0.29029    1.000
    N4901    N        0.92742    0.35767    0.34802    1.000
    N4902    N        0.84481    0.44895    0.30864    1.000
    Si4903   Si       0.82857    0.49056    0.31331    1.000
    N4904    N        0.76895    0.43897    0.31842    1.000
    Si4905   Si       0.85064    0.42740    0.34586    1.000
    Si4906   Si       0.74050    0.40741    0.32691    1.000
    Si4907   Si       0.95672    0.46410    0.33620    1.000
    N4908    N        0.92879    0.46445    0.30072    1.000
    N4909    N        0.86736    0.38834    0.33822    1.000
    N4910    N        0.92814    0.39529    0.29984    1.000
    Si4911   Si       0.90922    0.50125    0.31464    1.000
    Si4912   Si       0.95351    0.39042    0.33705    1.000
    N4913    N        0.99379    0.48280    0.32288    1.000
    N4914    N        0.82392    0.36062    0.38892    1.000
    Si4915   Si       0.84852    0.28299    0.37465    1.000
    N4916    N        0.80387    0.29186    0.37219    1.000
    Si4917   Si       0.84468    0.35327    0.35109    1.000
    N4918    N        0.76361    0.38035    0.35560    1.000
    N4919    N        0.86962    0.32122    0.36776    1.000
    Si4920   Si       0.90986    0.33319    0.37845    1.000
    N4921    N        0.93681    0.29790    0.38407    1.000
    Si4922   Si       0.95376    0.26905    0.35583    1.000
    Si4923   Si       0.83964    0.44672    0.40414    1.000
    Si4924   Si       0.78443    0.45219    0.35758    1.000
    Si4925   Si       0.79285    0.38941    0.38493    1.000
    N4926    N        0.75411    0.44975    0.38861    1.000
    N4927    N        0.81462    0.42522    0.37383    1.000
    N4928    N        0.80543    0.48824    0.34957    1.000
    N4929    N        0.93002    0.49762    0.35500    1.000
    N4930    N        0.86875    0.45662    0.37278    1.000
    Si4931   Si       0.89578    0.48740    0.38324    1.000
    N4932    N        0.95214    0.42708    0.36063    1.000
    Si4933   Si       0.96848    0.42320    0.40323    1.000
    N4934    N        0.77447    0.32395    0.43601    1.000
    Si4935   Si       0.79151    0.36270    0.45021    1.000
    N4936    N        0.83485    0.36211    0.45151    1.000
    Si4937   Si       0.79957    0.29275    0.41715    1.000
    N4938    N        0.84362    0.30127    0.42295    1.000
    Si4939   Si       0.85582    0.34265    0.41506    1.000
    Si4940   Si       0.86481    0.26511    0.43839    1.000
    Si4941   Si       0.92508    0.37363    0.44375    1.000
    Si4942   Si       0.93995    0.26895    0.41718    1.000
    N4943    N        0.89757    0.35412    0.41627    1.000
    N4944    N        0.90703    0.26678    0.44514    1.000
    N4945    N        0.96166    0.35899    0.45879    1.000
    N4946    N        0.98237    0.26480    0.42719    1.000
    Si4947   Si       0.77653    0.44538    0.42519    1.000
    N4948    N        0.81149    0.47199    0.42452    1.000
    N4949    N        0.78220    0.39999    0.42553    1.000
    N4950    N        0.75481    0.45753    0.46052    1.000
    N4951    N        0.86296    0.42592    0.43372    1.000
    Si4952   Si       0.81102    0.50522    0.45384    1.000
    Si4953   Si       0.85732    0.39577    0.46415    1.000
    N4954    N        0.91304    0.47738    0.42062    1.000
    N4955    N        0.98076    0.46498    0.41410    1.000
    N4956    N        0.93458    0.41450    0.43034    1.000
    Si4957   Si       0.90202    0.44380    0.44612    1.000
    Si4958   Si       0.95171    0.49344    0.43072    1.000
    N4959    N        0.77754    0.37016    0.49156    1.000
    Si4960   Si       0.85760    0.26961    0.51181    1.000
    Si4961   Si       0.74702    0.28321    0.51789    1.000
    Si4962   Si       0.73756    0.35637    0.50389    1.000
    Si4963   Si       0.92363    0.26712    0.48614    1.000
    N4964    N        0.89583    0.28914    0.51194    1.000
    Si4965   Si       0.96121    0.33596    0.49651    1.000
    N4966    N        0.95670    0.29473    0.48020    1.000
    N4967    N        0.93306    0.35049    0.52235    1.000
    N4968    N        0.83763    0.41374    0.49788    1.000
    Si4969   Si       0.77309    0.46400    0.49889    1.000
    N4970    N        0.81306    0.48294    0.49084    1.000
    Si4971   Si       0.79999    0.39700    0.51590    1.000
    N4972    N        0.75313    0.49527    0.51899    1.000
    Si4973   Si       0.83622    0.49948    0.52228    1.000
    N4974    N        0.95164    0.41674    0.50660    1.000
    N4975    N        0.89859    0.38647    0.47542    1.000
    N4976    N        0.95095    0.48525    0.47550    1.000
    Si4977   Si       0.91819    0.39107    0.51331    1.000
    Si4978   Si       0.97228    0.45218    0.48950    1.000
    Si4979   Si       0.86673    0.44301    0.51470    1.000
    Si4980   Si       0.91414    0.49708    0.50024    1.000
    N4981    N        0.89136    0.46091    0.48426    1.000
    N4982    N        0.76572    0.29924    0.55328    1.000
    Si4983   Si       0.83277    0.33150    0.55237    1.000
    N4984    N        0.81934    0.37246    0.54683    1.000
    Si4985   Si       0.80190    0.28135    0.57259    1.000
    N4986    N        0.82977    0.29345    0.53410    1.000
    N4987    N        0.87506    0.34740    0.55572    1.000
    N4988    N        0.92857    0.30474    0.57110    1.000
    Si4989   Si       0.90497    0.32225    0.53863    1.000
    Si4990   Si       0.96376    0.28198    0.58120    1.000
    N4991    N        0.97712    0.26234    0.54427    1.000
    N4992    N        0.84444    0.46255    0.54542    1.000
    Si4993   Si       0.74900    0.43565    0.56472    1.000
    N4994    N        0.77397    0.43107    0.52819    1.000
    N4995    N        0.89084    0.41482    0.53911    1.000
    Si4996   Si       0.86104    0.38699    0.56079    1.000
    Si4997   Si       0.91431    0.44463    0.56512    1.000
    Si4998   Si       0.97814    0.41873    0.54247    1.000
    N4999    N        0.95099    0.42459    0.57755    1.000
    N5000    N        0.92415    0.47725    0.53963    1.000
    N5001    N        0.77861    0.27166    0.61406    1.000
    N5002    N        0.75742    0.33993    0.61278    1.000
    Si5003   Si       0.84429    0.32584    0.62557    1.000
    Si5004   Si       0.77921    0.31008    0.63482    1.000
    N5005    N        0.82009    0.31887    0.59145    1.000
    Si5006   Si       0.75581    0.38164    0.62498    1.000
    N5007    N        0.85663    0.36375    0.64104    1.000
    N5008    N        0.88157    0.30467    0.62069    1.000
    Si5009   Si       0.91483    0.32836    0.60669    1.000
    N5010    N        0.91704    0.37325    0.60700    1.000
    N5011    N        0.94734    0.32323    0.63429    1.000
    Si5012   Si       0.88422    0.26206    0.63255    1.000
    N5013    N        0.98970    0.37152    0.59571    1.000
    Si5014   Si       0.98704    0.33448    0.62140    1.000
    N5015    N        0.76702    0.41268    0.59790    1.000
    N5016    N        0.82053    0.46868    0.61482    1.000
    Si5017   Si       0.78159    0.45224    0.61390    1.000
    N5018    N        0.75350    0.47188    0.58810    1.000
    N5019    N        0.85883    0.40972    0.59625    1.000
    Si5020   Si       0.83935    0.50374    0.63006    1.000
    Si5021   Si       0.85060    0.45173    0.58729    1.000
    Si5022   Si       0.95544    0.39463    0.60868    1.000
    N5023    N        0.89059    0.46683    0.59372    1.000
    Si5024   Si       0.88439    0.39350    0.62564    1.000
    Si5025   Si       0.89146    0.50978    0.60434    1.000
    N5026    N        0.81640    0.31414    0.65656    1.000
    N5027    N        0.75067    0.30542    0.66805    1.000
    Si5028   Si       0.82243    0.37519    0.66640    1.000
    N5029    N        0.77938    0.37742    0.66047    1.000
    Si5030   Si       0.94228    0.29520    0.66798    1.000
    N5031    N        0.98485    0.28337    0.66797    1.000
    N5032    N        0.91186    0.26445    0.66677    1.000
    N5033    N        0.93647    0.32170    0.70152    1.000
    Si5034   Si       0.79564    0.44253    0.68830    1.000
    N5035    N        0.76809    0.45341    0.65491    1.000
    N5036    N        0.83071    0.41864    0.67520    1.000
    N5037    N        0.88054    0.50432    0.64552    1.000
    N5038    N        0.90023    0.41537    0.65776    1.000
    Si5039   Si       0.90695    0.49415    0.67969    1.000
    Si5040   Si       0.93752    0.42723    0.67186    1.000
    Si5041   Si       0.87270    0.42507    0.68974    1.000
    N5042    N        0.96524    0.40425    0.64972    1.000
    N5043    N        0.94211    0.47156    0.66445    1.000
    Si5044   Si       0.97931    0.49406    0.66031    1.000
    Si5045   Si       0.85079    0.35837    0.72902    1.000
    N5046    N        0.77966    0.30663    0.74749    1.000
    Si5047   Si       0.79521    0.26476    0.74604    1.000
    N5048    N        0.81643    0.26926    0.70887    1.000
    N5049    N        0.81403    0.35655    0.70678    1.000
    N5050    N        0.86471    0.31948    0.71406    1.000
    Si5051   Si       0.77315    0.37707    0.70595    1.000
    Si5052   Si       0.82217    0.31163    0.69978    1.000
    N5053    N        0.90328    0.26644    0.73662    1.000
    Si5054   Si       0.96538    0.34928    0.72332    1.000
    Si5055   Si       0.90398    0.31020    0.72767    1.000
    N5056    N        0.94333    0.37023    0.75357    1.000
    N5057    N        0.77437    0.41745    0.71905    1.000
    Si5058   Si       0.74358    0.44208    0.73685    1.000
    Si5059   Si       0.85189    0.48715    0.72505    1.000
    N5060    N        0.74009    0.47704    0.71373    1.000
    N5061    N        0.81213    0.47762    0.70902    1.000
    N5062    N        0.96395    0.48892    0.73026    1.000
    Si5063   Si       0.90975    0.39733    0.74434    1.000
    Si5064   Si       0.95591    0.44792    0.74392    1.000
    N5065    N        0.93092    0.42535    0.71684    1.000
    N5066    N        0.87598    0.39099    0.71836    1.000
    N5067    N        0.88042    0.46609    0.70099    1.000
    N5068    N        0.78986    0.32852    0.81119    1.000
    Si5069   Si       0.79608    0.34069    0.77161    1.000
    N5070    N        0.83684    0.35363    0.76991    1.000
    N5071    N        0.77081    0.37574    0.76587    1.000
    Si5072   Si       0.82715    0.26097    0.81573    1.000
    N5073    N        0.73605    0.27645    0.78792    1.000
    Si5074   Si       0.85173    0.38567    0.79669    1.000
    Si5075   Si       0.75970    0.29639    0.81769    1.000
    N5076    N        0.91445    0.31761    0.76810    1.000
    Si5077   Si       0.92495    0.27681    0.77436    1.000
    Si5078   Si       0.92467    0.35449    0.79259    1.000
    N5079    N        0.90012    0.26320    0.80478    1.000
    N5080    N        0.96142    0.25571    0.77269    1.000
    N5081    N        0.82741    0.41862    0.78266    1.000
    Si5082   Si       0.84522    0.45579    0.79797    1.000
    N5083    N        0.76327    0.44246    0.77579    1.000
    N5084    N        0.85772    0.48320    0.76593    1.000
    Si5085   Si       0.79062    0.41364    0.75985    1.000
    N5086    N        0.97850    0.50126    0.80786    1.000
    Si5087   Si       0.96505    0.46077    0.81223    1.000
    N5088    N        0.89353    0.38890    0.78405    1.000
    Si5089   Si       0.91440    0.41930    0.80788    1.000
    N5090    N        0.93766    0.44504    0.78289    1.000
    N5091    N        0.84852    0.36780    0.83470    1.000
    Si5092   Si       0.82162    0.33380    0.84112    1.000
    N5093    N        0.84463    0.29735    0.83283    1.000
    N5094    N        0.78710    0.26377    0.82909    1.000
    N5095    N        0.79948    0.35121    0.87493    1.000
    N5096    N        0.73787    0.31621    0.85005    1.000
    N5097    N        0.90732    0.33450    0.82974    1.000
    N5098    N        0.90288    0.27602    0.86793    1.000
    Si5099   Si       0.88454    0.35921    0.85753    1.000
    Si5100   Si       0.88845    0.29491    0.83235    1.000
    N5101    N        0.96923    0.26017    0.84785    1.000
    Si5102   Si       0.86501    0.43251    0.86483    1.000
    N5103    N        0.82433    0.48133    0.82686    1.000
    N5104    N        0.75845    0.45690    0.84502    1.000
    Si5105   Si       0.80089    0.45856    0.85622    1.000
    N5106    N        0.82286    0.42128    0.86938    1.000
    Si5107   Si       0.97777    0.39781    0.84446    1.000
    N5108    N        0.94143    0.45853    0.84880    1.000
    N5109    N        0.89377    0.40048    0.87351    1.000
    N5110    N        0.94472    0.38890    0.81918    1.000
    N5111    N        0.88001    0.44221    0.82272    1.000
    Si5112   Si       0.90363    0.47891    0.84193    1.000
    N5113    N        0.84404    0.27111    0.90911    1.000
    N5114    N        0.73917    0.33085    0.91916    1.000
    Si5115   Si       0.75483    0.34716    0.88063    1.000
    Si5116   Si       0.87748    0.36092    0.92838    1.000
    N5117    N        0.87462    0.33530    0.89184    1.000
    Si5118   Si       0.88101    0.29318    0.90073    1.000
    N5119    N        0.97992    0.28511    0.91345    1.000
    Si5120   Si       0.94425    0.26697    0.93080    1.000
    N5121    N        0.91927    0.37188    0.93181    1.000
    N5122    N        0.84519    0.38889    0.92623    1.000
    N5123    N        0.75211    0.45347    0.91287    1.000
    Si5124   Si       0.78662    0.47520    0.92762    1.000
    N5125    N        0.80963    0.48229    0.89245    1.000
    Si5126   Si       0.74780    0.41061    0.91484    1.000
    Si5127   Si       0.84649    0.50527    0.88597    1.000
    N5128    N        0.78251    0.38747    0.92975    1.000
    Si5129   Si       0.81479    0.38709    0.89414    1.000
    N5130    N        0.96701    0.40528    0.88594    1.000
    N5131    N        0.88014    0.47376    0.87899    1.000
    Si5132   Si       0.97964    0.49856    0.93026    1.000
    Si5133   Si       0.96060    0.45072    0.88476    1.000
    Si5134   Si       0.90487    0.48448    0.91798    1.000
    N5135    N        0.92656    0.44492    0.91238    1.000
    Si5136   Si       0.92733    0.40267    0.90382    1.000
    N5137    N        0.84559    0.27483    0.97647    1.000
    Si5138   Si       0.83125    0.34609    0.98264    1.000
    N5139    N        0.80565    0.32460    0.95345    1.000
    Si5140   Si       0.76763    0.34843    0.94820    1.000
    N5141    N        0.75385    0.35859    0.98799    1.000
    Si5142   Si       0.81829    0.28386    0.94325    1.000
    N5143    N        0.86803    0.33540    0.96304    1.000
    Si5144   Si       0.88456    0.29609    0.96931    1.000
    Si5145   Si       0.95046    0.36787    0.96500    1.000
    N5146    N        0.97767    0.33204    0.97144    1.000
    N5147    N        0.90766    0.29002    0.93442    1.000
    N5148    N        0.82336    0.38777    0.99240    1.000
    Si5149   Si       0.81254    0.40725    0.95537    1.000
    N5150    N        0.80821    0.45102    0.95889    1.000
    Si5151   Si       0.81304    0.47374    0.99470    1.000
    N5152    N        0.90569    0.48894    0.96334    1.000
    Si5153   Si       0.93945    0.49757    0.98727    1.000
    N5154    N        0.97312    0.47616    0.96732    1.000
    N5155    N        0.97757    0.40143    0.95252    1.000
    Si5156   Si       0.79560    0.59103    0.01842    1.000
    Si5157   Si       0.84868    0.53484    0.02468    1.000
    N5158    N        0.83361    0.57513    0.03115    1.000
    N5159    N        0.76602    0.58063    0.04967    1.000
    N5160    N        0.89124    0.54152    0.03002    1.000
    Si5161   Si       0.90476    0.62627    0.01353    1.000
    N5162    N        0.89811    0.60708    0.05074    1.000
    Si5163   Si       0.92220    0.52321    0.05432    1.000
    N5164    N        0.79943    0.63385    0.01431    1.000
    Si5165   Si       0.85390    0.72023    0.04520    1.000
    N5166    N        0.81904    0.74161    0.03208    1.000
    Si5167   Si       0.75362    0.70024    0.03985    1.000
    N5168    N        0.84842    0.68074    0.02871    1.000
    N5169    N        0.74996    0.74409    0.04005    1.000
    Si5170   Si       0.81495    0.65680    0.04722    1.000
    N5171    N        0.75186    0.68258    0.00117    1.000
    Si5172   Si       0.91000    0.70152    0.00412    1.000
    N5173    N        0.89312    0.73154    0.02990    1.000
    N5174    N        0.91817    0.66496    0.02770    1.000
    Si5175   Si       0.98288    0.70229    0.02115    1.000
    Si5176   Si       0.76402    0.58098    0.09394    1.000
    N5177    N        0.83380    0.62759    0.07370    1.000
    Si5178   Si       0.85879    0.59362    0.06037    1.000
    N5179    N        0.83960    0.50908    0.05878    1.000
    N5180    N        0.79238    0.55436    0.11215    1.000
    N5181    N        0.77535    0.61905    0.11139    1.000
    Si5182   Si       0.86347    0.52509    0.09242    1.000
    Si5183   Si       0.81832    0.62910    0.11439    1.000
    N5184    N        0.86651    0.56770    0.09418    1.000
    N5185    N        0.94967    0.55333    0.06948    1.000
    Si5186   Si       0.93307    0.59521    0.07442    1.000
    N5187    N        0.96359    0.62588    0.06542    1.000
    Si5188   Si       0.98069    0.54566    0.09756    1.000
    N5189    N        0.85457    0.73164    0.08589    1.000
    N5190    N        0.78400    0.74182    0.10125    1.000
    Si5191   Si       0.78741    0.69750    0.10632    1.000
    N5192    N        0.78756    0.68568    0.06415    1.000
    Si5193   Si       0.93820    0.66492    0.06504    1.000
    Si5194   Si       0.97130    0.73010    0.08748    1.000
    N5195    N        0.91890    0.67050    0.10051    1.000
    N5196    N        0.97079    0.69250    0.06263    1.000
    N5197    N        0.83753    0.60136    0.14145    1.000
    Si5198   Si       0.82231    0.55568    0.14157    1.000
    N5199    N        0.84598    0.51827    0.13182    1.000
    N5200    N        0.98292    0.57834    0.12600    1.000
    Si5201   Si       0.94790    0.58616    0.14724    1.000
    Si5202   Si       0.88093    0.59050    0.12920    1.000
    N5203    N        0.93550    0.54738    0.16518    1.000
    Si5204   Si       0.96302    0.51445    0.16870    1.000
    N5205    N        0.92108    0.59675    0.11609    1.000
    N5206    N        0.98011    0.51078    0.12733    1.000
    N5207    N        0.88729    0.59314    0.17227    1.000
    N5208    N        0.74184    0.74497    0.15967    1.000
    N5209    N        0.81901    0.67285    0.12578    1.000
    Si5210   Si       0.85160    0.73985    0.12767    1.000
    Si5211   Si       0.84194    0.68909    0.15833    1.000
    N5212    N        0.75318    0.68177    0.12815    1.000
    N5213    N        0.82410    0.72872    0.16007    1.000
    Si5214   Si       0.74007    0.64305    0.11943    1.000
    Si5215   Si       0.91931    0.70068    0.13115    1.000
    N5216    N        0.87918    0.70739    0.14398    1.000
    N5217    N        0.93940    0.68542    0.16715    1.000
    N5218    N        0.93967    0.73507    0.11776    1.000
    Si5219   Si       0.96740    0.65293    0.16708    1.000
    Si5220   Si       0.84262    0.55783    0.21548    1.000
    N5221    N        0.83560    0.60127    0.21614    1.000
    Si5222   Si       0.77423    0.54632    0.20596    1.000
    Si5223   Si       0.85303    0.61825    0.18072    1.000
    N5224    N        0.81206    0.54932    0.18472    1.000
    N5225    N        0.77412    0.50764    0.22254    1.000
    N5226    N        0.87829    0.53579    0.20684    1.000
    Si5227   Si       0.90937    0.56352    0.19602    1.000
    N5228    N        0.95157    0.61377    0.18130    1.000
    Si5229   Si       0.95847    0.60634    0.22582    1.000
    N5230    N        0.93174    0.57131    0.23121    1.000
    Si5231   Si       0.82071    0.75023    0.19635    1.000
    N5232    N        0.84568    0.65938    0.18911    1.000
    Si5233   Si       0.82978    0.66051    0.23065    1.000
    N5234    N        0.86233    0.75135    0.21133    1.000
    N5235    N        0.73735    0.67962    0.19814    1.000
    N5236    N        0.78037    0.75182    0.21493    1.000
    Si5237   Si       0.93192    0.71324    0.20048    1.000
    N5238    N        0.96848    0.71388    0.22292    1.000
    N5239    N        0.92491    0.75246    0.18209    1.000
    N5240    N        0.83195    0.54073    0.25209    1.000
    Si5241   Si       0.80099    0.60471    0.24395    1.000
    N5242    N        0.82092    0.59991    0.28344    1.000
    N5243    N        0.76986    0.57170    0.24191    1.000
    Si5244   Si       0.85893    0.62173    0.28679    1.000
    Si5245   Si       0.84628    0.55593    0.29135    1.000
    Si5246   Si       0.94252    0.53669    0.25642    1.000
    N5247    N        0.98468    0.54622    0.26712    1.000
    Si5248   Si       0.78893    0.72458    0.24744    1.000
    N5249    N        0.75777    0.69872    0.26218    1.000
    N5250    N        0.82566    0.70498    0.23750    1.000
    Si5251   Si       0.75032    0.66411    0.23714    1.000
    N5252    N        0.79899    0.75493    0.27834    1.000
    N5253    N        0.78855    0.64478    0.23629    1.000
    N5254    N        0.90309    0.70204    0.23548    1.000
    Si5255   Si       0.86467    0.72244    0.24380    1.000
    Si5256   Si       0.98035    0.67374    0.23369    1.000
    N5257    N        0.94674    0.64640    0.24391    1.000
    N5258    N        0.87153    0.74884    0.27949    1.000
    Si5259   Si       0.90603    0.66427    0.25521    1.000
    N5260    N        0.86397    0.64830    0.25567    1.000
    Si5261   Si       0.79538    0.58257    0.31457    1.000
    N5262    N        0.80999    0.54301    0.31628    1.000
    N5263    N        0.75532    0.59484    0.30644    1.000
    Si5264   Si       0.75361    0.62415    0.34240    1.000
    N5265    N        0.80085    0.60334    0.35098    1.000
    N5266    N        0.86543    0.51392    0.30589    1.000
    Si5267   Si       0.92135    0.57721    0.31254    1.000
    N5268    N        0.95519    0.60174    0.29561    1.000
    N5269    N        0.92590    0.53662    0.29617    1.000
    N5270    N        0.88125    0.58527    0.29946    1.000
    Si5271   Si       0.99301    0.57790    0.29448    1.000
    N5272    N        0.85437    0.64475    0.32677    1.000
    N5273    N        0.77825    0.66013    0.33318    1.000
    N5274    N        0.74397    0.72751    0.32670    1.000
    N5275    N        0.82102    0.71106    0.33897    1.000
    Si5276   Si       0.77865    0.70461    0.34284    1.000
    Si5277   Si       0.81740    0.64324    0.34835    1.000
    Si5278   Si       0.97598    0.75010    0.32257    1.000
    Si5279   Si       0.95374    0.64368    0.29118    1.000
    N5280    N        0.93380    0.75574    0.31733    1.000
    N5281    N        0.91354    0.65776    0.29774    1.000
    N5282    N        0.97881    0.66561    0.32061    1.000
    Si5283   Si       0.89382    0.66095    0.33426    1.000
    Si5284   Si       0.91005    0.73980    0.34670    1.000
    Si5285   Si       0.78671    0.58048    0.38894    1.000
    N5286    N        0.76374    0.54317    0.37766    1.000
    N5287    N        0.82217    0.55010    0.38451    1.000
    N5288    N        0.75025    0.60741    0.38290    1.000
    Si5289   Si       0.79895    0.52949    0.35649    1.000
    Si5290   Si       0.85820    0.55406    0.40782    1.000
    N5291    N        0.98396    0.61875    0.36674    1.000
    Si5292   Si       0.92766    0.53798    0.37500    1.000
    Si5293   Si       0.94285    0.61096    0.37603    1.000
    N5294    N        0.88792    0.53062    0.38715    1.000
    N5295    N        0.92878    0.57535    0.35529    1.000
    N5296    N        0.82335    0.65410    0.38984    1.000
    N5297    N        0.77019    0.70319    0.38589    1.000
    Si5298   Si       0.85408    0.72198    0.36248    1.000
    N5299    N        0.83960    0.71645    0.40315    1.000
    Si5300   Si       0.80545    0.69073    0.40474    1.000
    N5301    N        0.91788    0.64485    0.36794    1.000
    Si5302   Si       0.97165    0.72727    0.39727    1.000
    N5303    N        0.96699    0.68367    0.39113    1.000
    N5304    N        0.89140    0.69972    0.35217    1.000
    N5305    N        0.93061    0.73578    0.38402    1.000
    Si5306   Si       0.92303    0.68651    0.38600    1.000
    N5307    N        0.80145    0.59693    0.42808    1.000
    Si5308   Si       0.83583    0.62421    0.41957    1.000
    N5309    N        0.84918    0.52959    0.44401    1.000
    N5310    N        0.87006    0.59528    0.41605    1.000
    Si5311   Si       0.90668    0.60175    0.43966    1.000
    Si5312   Si       0.97210    0.56375    0.42922    1.000
    N5313    N        0.94379    0.59589    0.41620    1.000
    N5314    N        0.95209    0.53008    0.41088    1.000
    N5315    N        0.90641    0.63612    0.46557    1.000
    N5316    N        0.84437    0.64653    0.45577    1.000
    N5317    N        0.79356    0.68546    0.44679    1.000
    N5318    N        0.74906    0.73091    0.44629    1.000
    N5319    N        0.96517    0.66694    0.46461    1.000
    Si5320   Si       0.92394    0.67580    0.46427    1.000
    N5321    N        0.90600    0.69057    0.42619    1.000
    N5322    N        0.96364    0.75616    0.43156    1.000
    N5323    N        0.88549    0.75763    0.43438    1.000
    Si5324   Si       0.87221    0.71692    0.43208    1.000
    N5325    N        0.77678    0.60686    0.49211    1.000
    N5326    N        0.84600    0.58491    0.48381    1.000
    Si5327   Si       0.76963    0.53513    0.51661    1.000
    N5328    N        0.78845    0.54150    0.47374    1.000
    Si5329   Si       0.73822    0.61608    0.47304    1.000
    Si5330   Si       0.80392    0.58321    0.46967    1.000
    Si5331   Si       0.87060    0.54863    0.47708    1.000
    Si5332   Si       0.86811    0.62344    0.48357    1.000
    N5333    N        0.87178    0.51705    0.50732    1.000
    Si5334   Si       0.94194    0.57136    0.49461    1.000
    N5335    N        0.93532    0.53505    0.51639    1.000
    N5336    N        0.97876    0.56040    0.47197    1.000
    N5337    N        0.95025    0.60618    0.52243    1.000
    N5338    N        0.90859    0.56743    0.46649    1.000
    Si5339   Si       0.82514    0.68059    0.47344    1.000
    N5340    N        0.82253    0.67043    0.51384    1.000
    N5341    N        0.75646    0.69004    0.50864    1.000
    N5342    N        0.85267    0.71238    0.47103    1.000
    Si5343   Si       0.75453    0.69288    0.46650    1.000
    N5344    N        0.91375    0.70889    0.49188    1.000
    Si5345   Si       0.87568    0.72857    0.50315    1.000
    N5346    N        0.82257    0.58997    0.55268    1.000
    Si5347   Si       0.82042    0.55079    0.57404    1.000
    N5348    N        0.75321    0.57005    0.54285    1.000
    N5349    N        0.80731    0.52725    0.53907    1.000
    Si5350   Si       0.78479    0.59952    0.53373    1.000
    Si5351   Si       0.85629    0.60973    0.57740    1.000
    Si5352   Si       0.91775    0.62529    0.54468    1.000
    N5353    N        0.89988    0.59880    0.57542    1.000
    N5354    N        0.98731    0.51426    0.55731    1.000
    Si5355   Si       0.94425    0.51388    0.55401    1.000
    N5356    N        0.77623    0.63759    0.55137    1.000
    Si5357   Si       0.78619    0.67827    0.53865    1.000
    Si5358   Si       0.85573    0.66735    0.54100    1.000
    N5359    N        0.79433    0.70346    0.57259    1.000
    N5360    N        0.84364    0.65096    0.57971    1.000
    Si5361   Si       0.95863    0.69302    0.56170    1.000
    N5362    N        0.93535    0.72847    0.56910    1.000
    N5363    N        0.86817    0.70849    0.54153    1.000
    Si5364   Si       0.89149    0.72951    0.56955    1.000
    N5365    N        0.93341    0.65891    0.56773    1.000
    N5366    N        0.88070    0.63415    0.52499    1.000
    N5367    N        0.78657    0.55624    0.60191    1.000
    N5368    N        0.84596    0.59242    0.61741    1.000
    Si5369   Si       0.81286    0.56874    0.63732    1.000
    N5370    N        0.85163    0.52694    0.59163    1.000
    Si5371   Si       0.74916    0.56736    0.58735    1.000
    Si5372   Si       0.92564    0.57166    0.59908    1.000
    N5373    N        0.96775    0.57719    0.58980    1.000
    Si5374   Si       0.98459    0.61399    0.60720    1.000
    N5375    N        0.92231    0.53093    0.58691    1.000
    N5376    N        0.91542    0.58397    0.63940    1.000
    N5377    N        0.95455    0.63523    0.62912    1.000
    N5378    N        0.74058    0.70981    0.62305    1.000
    Si5379   Si       0.81443    0.67489    0.60212    1.000
    N5380    N        0.77697    0.65730    0.61666    1.000
    N5381    N        0.83458    0.68941    0.63731    1.000
    Si5382   Si       0.76367    0.72802    0.58839    1.000
    Si5383   Si       0.74910    0.64221    0.58367    1.000
    Si5384   Si       0.92454    0.65885    0.61056    1.000
    N5385    N        0.87494    0.73175    0.61139    1.000
    N5386    N        0.92673    0.69558    0.63348    1.000
    N5387    N        0.88716    0.64601    0.63067    1.000
    Si5388   Si       0.88086    0.69331    0.63791    1.000
    Si5389   Si       0.96117    0.72239    0.62843    1.000
    N5390    N        0.98237    0.69626    0.59962    1.000
    N5391    N        0.79589    0.59478    0.66880    1.000
    Si5392   Si       0.76082    0.58076    0.68941    1.000
    N5393    N        0.81544    0.52919    0.65396    1.000
    Si5394   Si       0.80859    0.52057    0.69626    1.000
    Si5395   Si       0.82648    0.60723    0.69761    1.000
    N5396    N        0.86182    0.58580    0.68194    1.000
    Si5397   Si       0.94066    0.61160    0.66284    1.000
    N5398    N        0.97681    0.60408    0.68306    1.000
    N5399    N        0.97175    0.53546    0.66198    1.000
    N5400    N        0.91776    0.63005    0.69411    1.000
    Si5401   Si       0.87741    0.60643    0.64493    1.000
    Si5402   Si       0.75619    0.67793    0.64855    1.000
    N5403    N        0.78178    0.68528    0.68068    1.000
    Si5404   Si       0.82615    0.68437    0.68000    1.000
    N5405    N        0.77437    0.75587    0.67904    1.000
    N5406    N        0.84262    0.64812    0.69289    1.000
    N5407    N        0.82798    0.71813    0.70874    1.000
    Si5408   Si       0.78350    0.72185    0.70359    1.000
    N5409    N        0.88127    0.69572    0.68346    1.000
    Si5410   Si       0.94895    0.75992    0.68932    1.000
    N5411    N        0.81350    0.59889    0.73678    1.000
    N5412    N        0.75042    0.60921    0.72108    1.000
    N5413    N        0.84650    0.52850    0.71636    1.000
    Si5414   Si       0.77654    0.61514    0.75349    1.000
    N5415    N        0.77276    0.54168    0.70568    1.000
    Si5416   Si       0.74141    0.51909    0.72491    1.000
    Si5417   Si       0.95161    0.53155    0.72888    1.000
    Si5418   Si       0.88034    0.55579    0.70887    1.000
    N5419    N        0.88031    0.57936    0.74759    1.000
    N5420    N        0.91621    0.52977    0.70279    1.000
    N5421    N        0.98919    0.55395    0.72382    1.000
    Si5422   Si       0.82748    0.72698    0.75307    1.000
    N5423    N        0.77659    0.72180    0.74576    1.000
    Si5424   Si       0.75249    0.68566    0.75617    1.000
    N5425    N        0.86045    0.75472    0.74422    1.000
    Si5426   Si       0.93198    0.63395    0.73613    1.000
    N5427    N        0.96981    0.65598    0.73280    1.000
    N5428    N        0.90824    0.75417    0.70500    1.000
    N5429    N        0.97010    0.72410    0.70955    1.000
    Si5430   Si       0.88409    0.65737    0.70330    1.000
    N5431    N        0.90062    0.66395    0.74514    1.000
    Si5432   Si       0.96921    0.69812    0.74622    1.000
    Si5433   Si       0.86845    0.73519    0.69961    1.000
    N5434    N        0.75812    0.59557    0.78745    1.000
    N5435    N        0.81979    0.55413    0.78768    1.000
    Si5436   Si       0.77611    0.55497    0.78757    1.000
    N5437    N        0.84310    0.62140    0.79390    1.000
    Si5438   Si       0.84221    0.58574    0.76746    1.000
    N5439    N        0.74717    0.52894    0.76748    1.000
    Si5440   Si       0.91249    0.57572    0.77728    1.000
    Si5441   Si       0.97550    0.60246    0.79175    1.000
    Si5442   Si       0.94946    0.53141    0.80859    1.000
    N5443    N        0.93352    0.53917    0.76887    1.000
    N5444    N        0.88898    0.58096    0.81465    1.000
    N5445    N        0.94133    0.60470    0.76501    1.000
    N5446    N        0.96992    0.56897    0.81971    1.000
    Si5447   Si       0.82044    0.65922    0.78728    1.000
    Si5448   Si       0.76991    0.73847    0.78427    1.000
    N5449    N        0.81196    0.74251    0.79424    1.000
    N5450    N        0.84497    0.69189    0.77187    1.000
    N5451    N        0.74510    0.70392    0.79529    1.000
    Si5452   Si       0.83971    0.71418    0.81519    1.000
    N5453    N        0.78249    0.65554    0.76437    1.000
    N5454    N        0.98008    0.64396    0.80738    1.000
    N5455    N        0.93767    0.71377    0.77346    1.000
    Si5456   Si       0.95069    0.75403    0.78300    1.000
    N5457    N        0.90523    0.65082    0.81124    1.000
    N5458    N        0.88232    0.71304    0.81736    1.000
    Si5459   Si       0.89171    0.68464    0.78350    1.000
    N5460    N        0.85209    0.53515    0.85539    1.000
    N5461    N        0.78059    0.53489    0.82863    1.000
    Si5462   Si       0.74352    0.54386    0.84811    1.000
    Si5463   Si       0.82306    0.52399    0.82425    1.000
    N5464    N        0.79635    0.62792    0.87435    1.000
    N5465    N        0.86755    0.62178    0.86500    1.000
    N5466    N        0.91347    0.51831    0.82942    1.000
    Si5467   Si       0.89059    0.55138    0.84699    1.000
    Si5468   Si       0.87508    0.62165    0.82287    1.000
    N5469    N        0.76137    0.75906    0.83454    1.000
    N5470    N        0.75946    0.69219    0.86763    1.000
    Si5471   Si       0.79699    0.67026    0.86597    1.000
    N5472    N        0.81541    0.67797    0.82639    1.000
    N5473    N        0.83271    0.73990    0.85314    1.000
    Si5474   Si       0.94438    0.65397    0.83160    1.000
    N5475    N        0.93931    0.63266    0.87196    1.000
    Si5476   Si       0.98301    0.70603    0.86174    1.000
    Si5477   Si       0.91589    0.72617    0.84106    1.000
    N5478    N        0.94585    0.69482    0.84315    1.000
    N5479    N        0.90329    0.73395    0.88255    1.000
    N5480    N        0.77120    0.57431    0.91032    1.000
    Si5481   Si       0.74914    0.53674    0.91832    1.000
    N5482    N        0.83436    0.60318    0.92921    1.000
    N5483    N        0.74377    0.51718    0.88115    1.000
    Si5484   Si       0.75953    0.60624    0.88327    1.000
    N5485    N        0.86717    0.51483    0.92169    1.000
    Si5486   Si       0.94977    0.55142    0.89665    1.000
    N5487    N        0.89924    0.62039    0.92672    1.000
    Si5488   Si       0.90536    0.61011    0.88537    1.000
    N5489    N        0.95746    0.57679    0.93137    1.000
    N5490    N        0.94113    0.51119    0.91007    1.000
    N5491    N        0.91356    0.56772    0.87909    1.000
    Si5492   Si       0.83669    0.62964    0.89495    1.000
    Si5493   Si       0.82183    0.70829    0.92963    1.000
    N5494    N        0.82639    0.67501    0.90102    1.000
    N5495    N        0.78371    0.72845    0.92326    1.000
    Si5496   Si       0.74925    0.70689    0.90602    1.000
    N5497    N        0.85632    0.73904    0.92668    1.000
    Si5498   Si       0.86266    0.75143    0.88209    1.000
    N5499    N        0.93659    0.69032    0.92417    1.000
    Si5500   Si       0.89802    0.71811    0.93078    1.000
    Si5501   Si       0.95878    0.65708    0.90773    1.000
    N5502    N        0.97384    0.74404    0.87860    1.000
    N5503    N        0.79324    0.56892    0.98081    1.000
    Si5504   Si       0.77059    0.52986    0.98340    1.000
    Si5505   Si       0.79428    0.59275    0.94398    1.000
    N5506    N        0.77531    0.51276    0.94358    1.000
    N5507    N        0.77090    0.62861    0.95381    1.000
    N5508    N        0.84157    0.51050    0.98900    1.000
    Si5509   Si       0.86950    0.60234    0.95425    1.000
    N5510    N        0.95226    0.54056    0.98566    1.000
    Si5511   Si       0.87508    0.52157    0.96412    1.000
    N5512    N        0.88783    0.56264    0.96386    1.000
    Si5513   Si       0.93082    0.57468    0.96852    1.000
    Si5514   Si       0.97683    0.62868    0.98679    1.000
    N5515    N        0.93895    0.60966    0.99182    1.000
    N5516    N        0.87017    0.62892    0.98818    1.000
    Si5517   Si       0.78165    0.65826    0.98227    1.000
    N5518    N        0.81701    0.68206    0.96538    1.000
    Si5519   Si       0.85261    0.67048    0.98737    1.000
    N5520    N        0.92977    0.75233    0.93835    1.000
    N5521    N        0.88558    0.69596    0.96822    1.000
    N5522    N        0.97872    0.63942    0.94360    1.000
    Si5523   Si       0.95455    0.71833    0.95198    1.000
    N5524    N        0.95146    0.71431    0.99480    1.000
    N5525    N        0.80502    0.86314    0.02194    1.000
    Si5526   Si       0.81380    0.77637    0.00824    1.000
    N5527    N        0.79291    0.79687    0.04415    1.000
    Si5528   Si       0.84262    0.87155    0.00482    1.000
    Si5529   Si       0.74327    0.76322    0.00037    1.000
    Si5530   Si       0.78388    0.83829    0.05146    1.000
    N5531    N        0.87314    0.84671    0.01690    1.000
    N5532    N        0.92179    0.78761    0.00098    1.000
    Si5533   Si       0.88479    0.80681    0.01373    1.000
    Si5534   Si       0.92228    0.76507    0.03816    1.000
    N5535    N        0.89254    0.79308    0.05600    1.000
    N5536    N        0.93008    0.86523    0.05406    1.000
    N5537    N        0.77381    0.96765    0.01555    1.000
    Si5538   Si       0.75130    0.94975    0.04908    1.000
    N5539    N        0.83349    0.00676    0.99764    1.000
    Si5540   Si       0.79304    0.00655    0.01500    1.000
    N5541    N        0.91456    0.92188    0.00448    1.000
    Si5542   Si       0.94267    0.89944    0.03093    1.000
    N5543    N        0.86718    0.96706    0.04092    1.000
    N5544    N        0.97127    0.92189    0.05423    1.000
    Si5545   Si       0.87289    0.00145    0.01493    1.000
    N5546    N        0.97382    0.88465    0.00313    1.000
    Si5547   Si       0.87691    0.92836    0.02673    1.000
    N5548    N        0.87528    0.89960    0.05937    1.000
    N5549    N        0.78681    0.83918    0.09540    1.000
    Si5550   Si       0.82514    0.85242    0.10960    1.000
    N5551    N        0.86059    0.83769    0.08834    1.000
    Si5552   Si       0.78637    0.75482    0.05980    1.000
    Si5553   Si       0.88178    0.79807    0.09801    1.000
    N5554    N        0.98535    0.83244    0.08699    1.000
    Si5555   Si       0.88760    0.85738    0.05930    1.000
    N5556    N        0.95739    0.75928    0.05956    1.000
    Si5557   Si       0.84994    0.97206    0.08073    1.000
    Si5558   Si       0.79105    0.92503    0.10305    1.000
    Si5559   Si       0.77977    0.99701    0.08825    1.000
    N5560    N        0.75499    0.91496    0.07590    1.000
    N5561    N        0.80819    0.96107    0.08717    1.000
    N5562    N        0.82209    0.89593    0.10625    1.000
    N5563    N        0.87716    0.95000    0.10572    1.000
    N5564    N        0.94302    0.97941    0.09684    1.000
    Si5565   Si       0.86485    0.90991    0.10140    1.000
    Si5566   Si       0.97690    0.95099    0.08786    1.000
    N5567    N        0.83568    0.84278    0.15282    1.000
    N5568    N        0.77384    0.86745    0.15702    1.000
    N5569    N        0.76490    0.80404    0.15047    1.000
    Si5570   Si       0.75678    0.84221    0.12597    1.000
    Si5571   Si       0.85353    0.80449    0.16758    1.000
    Si5572   Si       0.75719    0.76683    0.12523    1.000
    N5573    N        0.86042    0.78157    0.13191    1.000
    Si5574   Si       0.86090    0.87829    0.16567    1.000
    Si5575   Si       0.79569    0.83093    0.17410    1.000
    N5576    N        0.97731    0.79098    0.14169    1.000
    N5577    N        0.94906    0.85458    0.14650    1.000
    Si5578   Si       0.93684    0.77120    0.14310    1.000
    Si5579   Si       0.95779    0.82316    0.11756    1.000
    N5580    N        0.92018    0.80286    0.11796    1.000
    N5581    N        0.78021    0.93722    0.14421    1.000
    Si5582   Si       0.78127    0.97902    0.15960    1.000
    N5583    N        0.77469    0.00766    0.12944    1.000
    Si5584   Si       0.97636    0.92972    0.15781    1.000
    N5585    N        0.93548    0.92820    0.14294    1.000
    Si5586   Si       0.92194    0.88830    0.15267    1.000
    N5587    N        0.88538    0.88682    0.12930    1.000
    Si5588   Si       0.91386    0.96141    0.12328    1.000
    N5589    N        0.90420    0.99755    0.14785    1.000
    N5590    N        0.80216    0.85056    0.21315    1.000
    Si5591   Si       0.75282    0.77573    0.18830    1.000
    N5592    N        0.81844    0.79329    0.19049    1.000
    Si5593   Si       0.80545    0.80951    0.23166    1.000
    Si5594   Si       0.97490    0.85435    0.18154    1.000
    N5595    N        0.88737    0.81141    0.19272    1.000
    Si5596   Si       0.90699    0.84521    0.21048    1.000
    Si5597   Si       0.89853    0.77484    0.21142    1.000
    N5598    N        0.94973    0.83876    0.21280    1.000
    N5599    N        0.89828    0.88006    0.18850    1.000
    N5600    N        0.75211    0.98170    0.19224    1.000
    N5601    N        0.78378    0.92169    0.21367    1.000
    Si5602   Si       0.75153    0.95230    0.22195    1.000
    Si5603   Si       0.82522    0.94511    0.19851    1.000
    N5604    N        0.81863    0.98406    0.18028    1.000
    N5605    N        0.83398    0.90873    0.17725    1.000
    Si5606   Si       0.78843    0.90495    0.17122    1.000
    Si5607   Si       0.96979    0.98035    0.22216    1.000
    N5608    N        0.97871    0.89755    0.18779    1.000
    N5609    N        0.98138    0.96657    0.18009    1.000
    N5610    N        0.76778    0.80829    0.25195    1.000
    N5611    N        0.83656    0.80809    0.25894    1.000
    Si5612   Si       0.76448    0.78049    0.28457    1.000
    Si5613   Si       0.83672    0.77440    0.28651    1.000
    Si5614   Si       0.86634    0.83364    0.27699    1.000
    N5615    N        0.89673    0.85126    0.25192    1.000
    N5616    N        0.92256    0.78190    0.24573    1.000
    Si5617   Si       0.93177    0.86236    0.27528    1.000
    Si5618   Si       0.95769    0.80676    0.24019    1.000
    N5619    N        0.96077    0.82916    0.27796    1.000
    Si5620   Si       0.90806    0.77139    0.28509    1.000
    Si5621   Si       0.78224    0.88211    0.23492    1.000
    N5622    N        0.79784    0.89507    0.27249    1.000
    N5623    N        0.76580    0.96232    0.26229    1.000
    Si5624   Si       0.80219    0.93605    0.25913    1.000
    N5625    N        0.84081    0.94282    0.23781    1.000
    Si5626   Si       0.85860    0.96038    0.27251    1.000
    N5627    N        0.86618    0.00282    0.26618    1.000
    N5628    N        0.92635    0.96833    0.23980    1.000
    N5629    N        0.94347    0.89915    0.25483    1.000
    Si5630   Si       0.93116    0.93842    0.27023    1.000
    Si5631   Si       0.90369    0.00481    0.24373    1.000
    Si5632   Si       0.97933    0.90283    0.23288    1.000
    N5633    N        0.82957    0.79322    0.32640    1.000
    N5634    N        0.76084    0.79374    0.32701    1.000
    N5635    N        0.85586    0.86444    0.30509    1.000
    N5636    N        0.79044    0.85475    0.33553    1.000
    Si5637   Si       0.81633    0.87923    0.30917    1.000
    Si5638   Si       0.79665    0.81142    0.34664    1.000
    N5639    N        0.98473    0.84526    0.34668    1.000
    Si5640   Si       0.86911    0.79897    0.34167    1.000
    N5641    N        0.88960    0.80605    0.30304    1.000
    Si5642   Si       0.88746    0.86640    0.33577    1.000
    N5643    N        0.92769    0.87031    0.31948    1.000
    Si5644   Si       0.81966    0.95623    0.33486    1.000
    Si5645   Si       0.77595    0.98794    0.29769    1.000
    N5646    N        0.81818    0.91330    0.34064    1.000
    N5647    N        0.78110    0.97430    0.34291    1.000
    N5648    N        0.85520    0.97643    0.34558    1.000
    N5649    N        0.81818    0.95987    0.29306    1.000
    Si5650   Si       0.96718    0.88333    0.33327    1.000
    N5651    N        0.95874    0.94952    0.30368    1.000
    N5652    N        0.89172    0.93913    0.29174    1.000
    Si5653   Si       0.88693    0.94541    0.33810    1.000
    N5654    N        0.78974    0.81200    0.39118    1.000
    Si5655   Si       0.74736    0.79977    0.39740    1.000
    Si5656   Si       0.74733    0.85652    0.35294    1.000
    N5657    N        0.82605    0.87852    0.40071    1.000
    N5658    N        0.88117    0.83353    0.36388    1.000
    N5659    N        0.87521    0.76121    0.35864    1.000
    Si5660   Si       0.88733    0.83201    0.40649    1.000
    Si5661   Si       0.79947    0.88708    0.36803    1.000
    N5662    N        0.75743    0.89078    0.37566    1.000
    Si5663   Si       0.77090    0.98253    0.38445    1.000
    N5664    N        0.74456    0.95083    0.40346    1.000
    Si5665   Si       0.96204    0.95487    0.34719    1.000
    N5666    N        0.96623    0.91306    0.36521    1.000
    Si5667   Si       0.86427    0.89939    0.39298    1.000
    N5668    N        0.88409    0.90571    0.35481    1.000
    N5669    N        0.92236    0.96565    0.35692    1.000
    Si5670   Si       0.91902    0.99793    0.38626    1.000
    N5671    N        0.85498    0.81665    0.42986    1.000
    Si5672   Si       0.85231    0.78034    0.45443    1.000
    N5673    N        0.79551    0.85342    0.45264    1.000
    Si5674   Si       0.80986    0.82069    0.42958    1.000
    N5675    N        0.80883    0.78149    0.45290    1.000
    Si5676   Si       0.76731    0.76868    0.45980    1.000
    N5677    N        0.74129    0.79825    0.43947    1.000
    Si5678   Si       0.96080    0.82582    0.42780    1.000
    N5679    N        0.95799    0.86890    0.42944    1.000
    N5680    N        0.88902    0.87351    0.41685    1.000
    Si5681   Si       0.92383    0.76572    0.41724    1.000
    N5682    N        0.92353    0.80860    0.41436    1.000
    Si5683   Si       0.81861    0.88975    0.44006    1.000
    Si5684   Si       0.82742    0.96047    0.42400    1.000
    Si5685   Si       0.75727    0.93433    0.44326    1.000
    N5686    N        0.80026    0.92799    0.43666    1.000
    N5687    N        0.85295    0.97544    0.45725    1.000
    N5688    N        0.86185    0.93839    0.40849    1.000
    N5689    N        0.80550    0.99500    0.40664    1.000
    Si5690   Si       0.89299    0.89047    0.45795    1.000
    N5691    N        0.92402    0.97558    0.42240    1.000
    N5692    N        0.98317    0.93515    0.43022    1.000
    N5693    N        0.91351    0.92762    0.45751    1.000
    Si5694   Si       0.88755    0.95815    0.43480    1.000
    Si5695   Si       0.94774    0.95393    0.45063    1.000
    Si5696   Si       0.97775    0.89955    0.40489    1.000
    Si5697   Si       0.76111    0.87080    0.47461    1.000
    N5698    N        0.76442    0.76322    0.50162    1.000
    N5699    N        0.86213    0.77244    0.49661    1.000
    N5700    N        0.91867    0.86516    0.48221    1.000
    N5701    N        0.96429    0.77285    0.51666    1.000
    Si5702   Si       0.96077    0.86679    0.47530    1.000
    N5703    N        0.97308    0.82504    0.47215    1.000
    Si5704   Si       0.85032    0.97588    0.49940    1.000
    Si5705   Si       0.78300    0.94276    0.50659    1.000
    N5706    N        0.75863    0.96160    0.47697    1.000
    N5707    N        0.77695    0.89921    0.50246    1.000
    Si5708   Si       0.84549    0.90418    0.51273    1.000
    N5709    N        0.82591    0.94319    0.51137    1.000
    N5710    N        0.85094    0.89402    0.47178    1.000
    N5711    N        0.82910    0.00890    0.51971    1.000
    Si5712   Si       0.91878    0.00426    0.49751    1.000
    Si5713   Si       0.98018    0.97167    0.51585    1.000
    N5714    N        0.95194    0.98195    0.48274    1.000
    N5715    N        0.88886    0.98110    0.52106    1.000
    N5716    N        0.83038    0.80470    0.55883    1.000
    Si5717   Si       0.84787    0.84732    0.56065    1.000
    N5718    N        0.82532    0.87391    0.53703    1.000
    N5719    N        0.74492    0.86937    0.55243    1.000
    Si5720   Si       0.86427    0.79480    0.53209    1.000
    N5721    N        0.89298    0.77102    0.55437    1.000
    N5722    N        0.88053    0.83665    0.53425    1.000
    Si5723   Si       0.93722    0.76770    0.54893    1.000
    N5724    N        0.94275    0.87367    0.54429    1.000
    N5725    N        0.95114    0.79788    0.57715    1.000
    Si5726   Si       0.90681    0.86900    0.52481    1.000
    Si5727   Si       0.78417    0.88480    0.54636    1.000
    N5728    N        0.75993    0.95100    0.54429    1.000
    N5729    N        0.86041    0.00601    0.58414    1.000
    Si5730   Si       0.77376    0.94406    0.58468    1.000
    N5731    N        0.95304    0.94401    0.53497    1.000
    Si5732   Si       0.90705    0.94454    0.54151    1.000
    N5733    N        0.88653    0.90943    0.52975    1.000
    Si5734   Si       0.96897    0.90756    0.55194    1.000
    N5735    N        0.84764    0.86099    0.60006    1.000
    N5736    N        0.82212    0.78106    0.62477    1.000
    N5737    N        0.78573    0.83725    0.60661    1.000
    Si5738   Si       0.74697    0.83797    0.62564    1.000
    Si5739   Si       0.80952    0.87576    0.61241    1.000
    Si5740   Si       0.80241    0.79914    0.59177    1.000
    Si5741   Si       0.86544    0.77120    0.62649    1.000
    N5742    N        0.76706    0.77368    0.58746    1.000
    N5743    N        0.89353    0.80418    0.62132    1.000
    N5744    N        0.91307    0.87174    0.61372    1.000
    Si5745   Si       0.93618    0.79547    0.61813    1.000
    Si5746   Si       0.88125    0.84543    0.62792    1.000
    Si5747   Si       0.95654    0.86598    0.61206    1.000
    N5748    N        0.96044    0.82630    0.63584    1.000
    Si5749   Si       0.78442    0.99180    0.64177    1.000
    N5750    N        0.79708    0.97386    0.60303    1.000
    N5751    N        0.74313    0.00155    0.64070    1.000
    N5752    N        0.79286    0.90451    0.58377    1.000
    N5753    N        0.93192    0.00947    0.60931    1.000
    N5754    N        0.96058    0.90947    0.59434    1.000
    Si5755   Si       0.89373    0.98814    0.60453    1.000
    Si5756   Si       0.91707    0.91522    0.60787    1.000
    N5757    N        0.90333    0.94920    0.58495    1.000
    Si5758   Si       0.81202    0.77418    0.66693    1.000
    Si5759   Si       0.83497    0.87299    0.68578    1.000
    Si5760   Si       0.74470    0.78459    0.68859    1.000
    N5761    N        0.85619    0.76622    0.67124    1.000
    Si5762   Si       0.85676    0.80793    0.69142    1.000
    N5763    N        0.81476    0.80547    0.69728    1.000
    N5764    N        0.86208    0.84412    0.66551    1.000
    N5765    N        0.74074    0.80745    0.65393    1.000
    N5766    N        0.74317    0.87615    0.64588    1.000
    Si5767   Si       0.96518    0.83555    0.67972    1.000
    N5768    N        0.93039    0.85925    0.69157    1.000
    N5769    N        0.94347    0.76002    0.64474    1.000
    N5770    N        0.81158    0.89265    0.65241    1.000
    Si5771   Si       0.77471    0.88941    0.67641    1.000
    N5772    N        0.80863    0.97267    0.67040    1.000
    Si5773   Si       0.84428    0.00135    0.66687    1.000
    N5774    N        0.75746    0.92462    0.69458    1.000
    N5775    N        0.97110    0.88943    0.65065    1.000
    Si5776   Si       0.90729    0.96127    0.67694    1.000
    N5777    N        0.91702    0.92896    0.64924    1.000
    N5778    N        0.93614    0.99316    0.68117    1.000
    Si5779   Si       0.93923    0.90073    0.67555    1.000
    N5780    N        0.88091    0.98737    0.64568    1.000
    Si5781   Si       0.79156    0.82729    0.72546    1.000
    N5782    N        0.74904    0.81048    0.72289    1.000
    N5783    N        0.79511    0.86538    0.70637    1.000
    Si5784   Si       0.89546    0.77822    0.73835    1.000
    N5785    N        0.88214    0.81718    0.72385    1.000
    Si5786   Si       0.89847    0.85821    0.71906    1.000
    N5787    N        0.91770    0.86451    0.75781    1.000
    N5788    N        0.96559    0.79746    0.70328    1.000
    N5789    N        0.81927    0.93497    0.73035    1.000
    N5790    N        0.77602    0.98120    0.73572    1.000
    Si5791   Si       0.80428    0.96180    0.76239    1.000
    Si5792   Si       0.78941    0.95368    0.70291    1.000
    Si5793   Si       0.93630    0.94468    0.74822    1.000
    N5794    N        0.86717    0.88863    0.71337    1.000
    Si5795   Si       0.96909    0.99277    0.70872    1.000
    Si5796   Si       0.86327    0.92698    0.73139    1.000
    N5797    N        0.95184    0.98441    0.75028    1.000
    N5798    N        0.87468    0.96454    0.70757    1.000
    Si5799   Si       0.86649    0.00023    0.73152    1.000
    N5800    N        0.93450    0.93081    0.70812    1.000
    Si5801   Si       0.81300    0.84004    0.80769    1.000
    N5802    N        0.78512    0.87457    0.81268    1.000
    N5803    N        0.80603    0.82779    0.76658    1.000
    Si5804   Si       0.74005    0.87007    0.80630    1.000
    Si5805   Si       0.93590    0.82839    0.77630    1.000
    N5806    N        0.97793    0.83052    0.76882    1.000
    N5807    N        0.92781    0.78731    0.76461    1.000
    N5808    N        0.83890    0.92214    0.79685    1.000
    N5809    N        0.77982    0.94603    0.79161    1.000
    N5810    N        0.84290    0.98360    0.77098    1.000
    Si5811   Si       0.80120    0.91536    0.81520    1.000
    Si5812   Si       0.86963    0.95092    0.79187    1.000
    N5813    N        0.95624    0.92085    0.78104    1.000
    Si5814   Si       0.91658    0.89960    0.78337    1.000
    N5815    N        0.89531    0.93241    0.76312    1.000
    N5816    N        0.80874    0.80718    0.83653    1.000
    Si5817   Si       0.83946    0.82406    0.86216    1.000
    Si5818   Si       0.80366    0.76484    0.83095    1.000
    N5819    N        0.85414    0.84705    0.82858    1.000
    Si5820   Si       0.94566    0.80056    0.84034    1.000
    Si5821   Si       0.89537    0.85679    0.83897    1.000
    N5822    N        0.98598    0.81609    0.83338    1.000
    N5823    N        0.86835    0.79500    0.87655    1.000
    N5824    N        0.93904    0.75888    0.82467    1.000
    N5825    N        0.92336    0.82910    0.81889    1.000
    Si5826   Si       0.75800    0.93896    0.87228    1.000
    N5827    N        0.79688    0.92744    0.85580    1.000
    Si5828   Si       0.89862    0.92906    0.85320    1.000
    N5829    N        0.90630    0.89711    0.82381    1.000
    Si5830   Si       0.89272    0.00411    0.83576    1.000
    N5831    N        0.88918    0.96180    0.82862    1.000
    N5832    N        0.86453    0.91631    0.87436    1.000
    N5833    N        0.90025    0.00430    0.87825    1.000
    N5834    N        0.93331    0.92323    0.87980    1.000
    N5835    N        0.84395    0.85223    0.89672    1.000
    N5836    N        0.77871    0.85307    0.91706    1.000
    Si5837   Si       0.81796    0.83977    0.92652    1.000
    N5838    N        0.74654    0.79011    0.92867    1.000
    N5839    N        0.81759    0.79674    0.93513    1.000
    Si5840   Si       0.74571    0.83233    0.93387    1.000
    N5841    N        0.98183    0.86332    0.88405    1.000
    Si5842   Si       0.89868    0.81855    0.89765    1.000
    N5843    N        0.90573    0.85880    0.88429    1.000
    N5844    N        0.93514    0.79868    0.88214    1.000
    Si5845   Si       0.94288    0.88355    0.89529    1.000
    Si5846   Si       0.93793    0.75765    0.89579    1.000
    N5847    N        0.89466    0.80382    0.94017    1.000
    Si5848   Si       0.77618    0.89822    0.92488    1.000
    N5849    N        0.74595    0.90664    0.89709    1.000
    N5850    N        0.81501    0.91774    0.92244    1.000
    N5851    N        0.75909    0.97648    0.89484    1.000
    Si5852   Si       0.82811    0.93822    0.88381    1.000
    N5853    N        0.83200    0.97946    0.88758    1.000
    Si5854   Si       0.79620    0.00183    0.89705    1.000
    Si5855   Si       0.86276    0.00895    0.89727    1.000
    Si5856   Si       0.95648    0.95102    0.90463    1.000
    Si5857   Si       0.87284    0.88438    0.90227    1.000
    N5858    N        0.96430    0.98695    0.87758    1.000
    N5859    N        0.87911    0.90384    0.93928    1.000
    N5860    N        0.94446    0.88862    0.93891    1.000
    N5861    N        0.82456    0.86606    0.96230    1.000
    N5862    N        0.75368    0.84054    0.97608    1.000
    N5863    N        0.78241    0.76506    0.98206    1.000
    Si5864   Si       0.85819    0.78028    0.94804    1.000
    Si5865   Si       0.78504    0.86776    0.98332    1.000
    N5866    N        0.85332    0.78567    0.99163    1.000
    Si5867   Si       0.78285    0.76898    0.93834    1.000
    Si5868   Si       0.97030    0.86671    0.96592    1.000
    Si5869   Si       0.93114    0.79166    0.95838    1.000
    N5870    N        0.96487    0.82163    0.95816    1.000
    N5871    N        0.77071    0.90613    0.96870    1.000
    Si5872   Si       0.83851    0.90885    0.95646    1.000
    Si5873   Si       0.75203    0.94121    0.98559    1.000
    N5874    N        0.84529    0.91513    0.99765    1.000
    N5875    N        0.92868    0.95639    0.93988    1.000
    Si5876   Si       0.91257    0.99590    0.94858    1.000
    N5877    N        0.90903    0.00302    0.99266    1.000
    N5878    N        0.87193    0.00765    0.93937    1.000
    Si5879   Si       0.91636    0.91962    0.95750    1.000
