# CIF file generated by openbabel 3.1.1, see https://openbabel.org
data_I
_chemical_name_common '3.01-23.aims'
_cell_length_a 40.0244
_cell_length_b 40.0244
_cell_length_c 40.0244
_cell_angle_alpha 90
_cell_angle_beta 90
_cell_angle_gamma 90
loop_
    _atom_site_label
    _atom_site_type_symbol
    _atom_site_fract_x
    _atom_site_fract_y
    _atom_site_fract_z
    _atom_site_occupancy
    N0       N        0.01925    0.09525    0.08394    1.000
    N1       N        0.01227    0.02662    0.09027    1.000
    Si2      Si       0.99650    0.06269    0.10430    1.000
    Si3      Si       0.99412    0.01369    0.05331    1.000
    N4       N        0.03442    0.09894    0.99564    1.000
    Si5      Si       0.99497    0.13270    0.08188    1.000
    N6       N        0.02133    0.16942    0.08798    1.000
    Si7      Si       0.02373    0.21176    0.08151    1.000
    N8       N        0.00698    0.24050    0.10830    1.000
    N9       N        0.99963    0.22019    0.04440    1.000
    Si10     Si       0.02237    0.22497    0.00832    1.000
    N11      N        0.00956    0.06846    0.14418    1.000
    N12      N        0.01954    0.09763    0.21106    1.000
    Si13     Si       0.01433    0.10492    0.16698    1.000
    Si14     Si       0.04087    0.06329    0.22640    1.000
    N15      N        0.03972    0.00508    0.14486    1.000
    N16      N        0.04236    0.12769    0.14591    1.000
    N17      N        0.04182    0.18127    0.19186    1.000
    N18      N        0.00112    0.15455    0.24305    1.000
    Si19     Si       0.00929    0.20617    0.17745    1.000
    Si20     Si       0.03876    0.17512    0.23415    1.000
    N21      N        0.02865    0.24292    0.17254    1.000
    N22      N        0.02005    0.11160    0.33851    1.000
    Si23     Si       0.03653    0.04703    0.28838    1.000
    N24      N        0.00809    0.04627    0.25076    1.000
    Si25     Si       0.00687    0.23073    0.28258    1.000
    N26      N        0.02686    0.23495    0.32032    1.000
    N27      N        0.99662    0.17687    0.34096    1.000
    Si28     Si       0.03616    0.19723    0.34101    1.000
    N29      N        0.03783    0.21056    0.26081    1.000
    Si30     Si       0.99805    0.13797    0.36216    1.000
    Si31     Si       0.01325    0.02521    0.39789    1.000
    Si32     Si       0.00922    0.10681    0.43117    1.000
    N33      N        0.02088    0.06850    0.40451    1.000
    Si34     Si       0.99849    0.01338    0.47131    1.000
    N35      N        0.02505    0.00811    0.43651    1.000
    N36      N        0.99534    0.12982    0.46851    1.000
    Si37     Si       0.04502    0.17229    0.41606    1.000
    N38      N        0.02745    0.19167    0.45270    1.000
    N39      N        0.01471    0.14184    0.40329    1.000
    Si40     Si       0.98795    0.17189    0.45829    1.000
    Si41     Si       0.01313    0.06270    0.52834    1.000
    N42      N        0.99470    0.04226    0.56394    1.000
    Si43     Si       0.99025    0.03989    0.60722    1.000
    N44      N        0.04445    0.09330    0.52560    1.000
    N45      N        0.02430    0.03405    0.49920    1.000
    N46      N        0.01667    0.00595    0.61980    1.000
    Si47     Si       0.04456    0.13553    0.53658    1.000
    N48      N        0.03469    0.23759    0.58663    1.000
    N49      N        0.00253    0.14447    0.53891    1.000
    N50      N        0.00533    0.18028    0.60364    1.000
    N51      N        0.03135    0.22229    0.51779    1.000
    Si52     Si       0.99649    0.21565    0.58433    1.000
    Si53     Si       0.00003    0.14179    0.58275    1.000
    Si54     Si       0.98803    0.22703    0.51126    1.000
    Si55     Si       0.04373    0.16386    0.61981    1.000
    N56      N        0.03420    0.11542    0.71412    1.000
    N57      N        0.01006    0.02447    0.68999    1.000
    Si58     Si       0.00969    0.02481    0.73343    1.000
    Si59     Si       0.03784    0.02329    0.65481    1.000
    Si60     Si       0.01486    0.08825    0.74242    1.000
    N61      N        0.98712    0.06673    0.64115    1.000
    N62      N        0.03896    0.12974    0.64652    1.000
    N63      N        0.99417    0.23107    0.71521    1.000
    N64      N        0.02011    0.23970    0.65251    1.000
    Si65     Si       0.03092    0.25072    0.69366    1.000
    Si66     Si       0.01399    0.13598    0.68001    1.000
    N67      N        0.02381    0.17738    0.68931    1.000
    N68      N        0.03262    0.03199    0.85323    1.000
    N69      N        0.00719    0.11408    0.77522    1.000
    Si70     Si       0.99485    0.05390    0.86096    1.000
    N71      N        0.03487    0.05314    0.75428    1.000
    Si72     Si       0.04065    0.11174    0.84601    1.000
    N73      N        0.00623    0.09508    0.86737    1.000
    N74      N        0.02171    0.17965    0.75783    1.000
    N75      N        0.01933    0.22217    0.82470    1.000
    Si76     Si       0.02255    0.18502    0.84943    1.000
    Si77     Si       0.03548    0.14583    0.78084    1.000
    N78      N        0.03320    0.15103    0.82512    1.000
    Si79     Si       0.99122    0.24821    0.80812    1.000
    Si80     Si       0.01887    0.10983    0.90724    1.000
    Si81     Si       0.99645    0.10714    0.97810    1.000
    N82      N        0.99487    0.08854    0.93859    1.000
    N83      N        0.99313    0.03134    0.89914    1.000
    Si84     Si       0.02737    0.01031    0.98374    1.000
    N85      N        0.99528    0.24716    0.98338    1.000
    N86      N        0.02640    0.14598    0.92976    1.000
    Si87     Si       0.01267    0.24199    0.94385    1.000
    N88      N        0.03870    0.19460    0.98183    1.000
    N89      N        0.99278    0.20549    0.93158    1.000
    Si90     Si       0.01059    0.17457    0.95777    1.000
    Si91     Si       0.01343    0.28067    0.09726    1.000
    N92      N        0.00978    0.34757    0.07107    1.000
    Si93     Si       0.99899    0.38678    0.06007    1.000
    Si94     Si       0.01074    0.48045    0.10417    1.000
    N95      N        0.02989    0.40986    0.08566    1.000
    N96      N        0.00735    0.45295    0.00222    1.000
    Si97     Si       0.99174    0.48599    0.02508    1.000
    N98      N        0.98405    0.38429    0.01838    1.000
    N99      N        0.99963    0.29194    0.20462    1.000
    Si100    Si       0.00151    0.27589    0.16574    1.000
    N101     N        0.01157    0.30714    0.13350    1.000
    Si102    Si       0.99960    0.33650    0.21117    1.000
    N103     N        0.04160    0.34369    0.18273    1.000
    N104     N        0.99489    0.38159    0.14285    1.000
    Si105    Si       0.03662    0.49193    0.24563    1.000
    Si106    Si       0.99356    0.42514    0.23181    1.000
    Si107    Si       0.01479    0.41471    0.12635    1.000
    N108     N        0.99235    0.45091    0.12835    1.000
    Si109    Si       0.03849    0.38895    0.19071    1.000
    N110     N        0.01218    0.46786    0.22022    1.000
    N111     N        0.00095    0.38485    0.21243    1.000
    N112     N        0.02456    0.31075    0.32236    1.000
    Si113    Si       0.02873    0.34175    0.29121    1.000
    N114     N        0.00491    0.26837    0.26519    1.000
    Si115    Si       0.04404    0.28307    0.25029    1.000
    N116     N        0.99109    0.36414    0.29297    1.000
    N117     N        0.03346    0.32898    0.24737    1.000
    N118     N        0.98777    0.34270    0.37365    1.000
    Si119    Si       0.00825    0.43546    0.36252    1.000
    N120     N        0.01841    0.42496    0.27071    1.000
    N121     N        0.03717    0.48704    0.28796    1.000
    N122     N        0.04458    0.42549    0.33443    1.000
    Si123    Si       0.04766    0.44519    0.29724    1.000
    N124     N        0.01900    0.47601    0.37265    1.000
    Si125    Si       0.01466    0.29441    0.49546    1.000
    N126     N        0.01478    0.34431    0.43118    1.000
    N127     N        0.02746    0.27444    0.40018    1.000
    Si128    Si       0.04000    0.30765    0.42833    1.000
    Si129    Si       0.01762    0.36785    0.39268    1.000
    N130     N        0.04344    0.28315    0.46466    1.000
    Si131    Si       0.98624    0.35693    0.46123    1.000
    N132     N        0.98806    0.32926    0.49451    1.000
    Si133    Si       0.00373    0.43148    0.43454    1.000
    N134     N        0.00514    0.40927    0.39555    1.000
    N135     N        0.04284    0.43982    0.45227    1.000
    N136     N        0.98889    0.40193    0.46553    1.000
    Si137    Si       0.04172    0.45070    0.49538    1.000
    N138     N        0.03516    0.29210    0.53406    1.000
    N139     N        0.04630    0.36111    0.55891    1.000
    N140     N        0.00081    0.45129    0.51132    1.000
    Si141    Si       0.02745    0.39909    0.54811    1.000
    N142     N        0.02243    0.42109    0.58618    1.000
    N143     N        0.00143    0.48896    0.58251    1.000
    Si144    Si       0.99588    0.39902    0.61123    1.000
    Si145    Si       0.01002    0.34546    0.66077    1.000
    N146     N        0.01734    0.35666    0.70173    1.000
    N147     N        0.02242    0.28745    0.71398    1.000
    N148     N        0.02880    0.31027    0.64411    1.000
    Si149    Si       0.99048    0.26900    0.73804    1.000
    N150     N        0.02606    0.37910    0.63649    1.000
    Si151    Si       0.04409    0.32563    0.71737    1.000
    Si152    Si       0.00986    0.46229    0.67642    1.000
    N153     N        0.98740    0.49360    0.65606    1.000
    Si154    Si       0.99866    0.39163    0.71800    1.000
    N155     N        0.99009    0.42584    0.69123    1.000
    N156     N        0.04233    0.45377    0.64868    1.000
    N157     N        0.03854    0.48555    0.70057    1.000
    N158     N        0.01548    0.34527    0.81129    1.000
    N159     N        0.00843    0.27170    0.77563    1.000
    Si160    Si       0.03925    0.36302    0.77952    1.000
    Si161    Si       0.04197    0.32740    0.83997    1.000
    Si162    Si       0.04610    0.28912    0.78177    1.000
    Si163    Si       0.00897    0.43006    0.78292    1.000
    N164     N        0.01870    0.39428    0.75840    1.000
    Si165    Si       0.00496    0.43572    0.86357    1.000
    N166     N        0.98896    0.43201    0.82407    1.000
    N167     N        0.03934    0.46141    0.86837    1.000
    N168     N        0.99007    0.35387    0.93012    1.000
    N169     N        0.02352    0.32365    0.87949    1.000
    Si170    Si       0.00791    0.28423    0.88069    1.000
    Si171    Si       0.99926    0.31562    0.94738    1.000
    Si172    Si       0.02162    0.36156    0.90058    1.000
    N173     N        0.03952    0.31703    0.96259    1.000
    N174     N        0.99153    0.27895    0.92172    1.000
    N175     N        0.04321    0.25921    0.87931    1.000
    Si176    Si       0.04523    0.44658    0.97711    1.000
    Si177    Si       0.99300    0.45360    0.93021    1.000
    N178     N        0.03803    0.44831    0.93374    1.000
    N179     N        0.01557    0.39760    0.87832    1.000
    Si180    Si       0.02048    0.59834    0.03385    1.000
    Si181    Si       0.01744    0.61411    0.10148    1.000
    Si182    Si       0.00829    0.53744    0.06971    1.000
    N183     N        0.03603    0.57167    0.06515    1.000
    N184     N        0.00736    0.52210    0.11264    1.000
    N185     N        0.02349    0.51617    0.03527    1.000
    N186     N        0.04379    0.60615    0.99839    1.000
    N187     N        0.98754    0.58501    0.11684    1.000
    N188     N        0.01583    0.63032    0.06113    1.000
    N189     N        0.01294    0.68456    0.01909    1.000
    Si190    Si       0.01105    0.67312    0.06104    1.000
    N191     N        0.04418    0.69692    0.07894    1.000
    Si192    Si       0.04656    0.68136    0.11984    1.000
    N193     N        0.01539    0.56494    0.17589    1.000
    Si194    Si       0.99473    0.53993    0.20539    1.000
    N195     N        0.02608    0.53291    0.23596    1.000
    Si196    Si       0.99002    0.54763    0.14440    1.000
    N197     N        0.99365    0.75031    0.17293    1.000
    Si198    Si       0.02356    0.75382    0.14202    1.000
    N199     N        0.01184    0.65356    0.12152    1.000
    Si200    Si       0.01002    0.75476    0.21137    1.000
    N201     N        0.02713    0.66804    0.23177    1.000
    N202     N        0.04121    0.71350    0.14748    1.000
    Si203    Si       0.98703    0.68534    0.22967    1.000
    N204     N        0.98558    0.72846    0.23761    1.000
    N205     N        0.01718    0.53786    0.34167    1.000
    Si206    Si       0.00049    0.57587    0.32823    1.000
    N207     N        0.00483    0.57294    0.28495    1.000
    N208     N        0.02556    0.60751    0.34327    1.000
    Si209    Si       0.03988    0.56520    0.26188    1.000
    Si210    Si       0.04786    0.52038    0.31516    1.000
    N211     N        0.02302    0.66930    0.30452    1.000
    Si212    Si       0.03544    0.64883    0.34275    1.000
    N213     N        0.00553    0.66975    0.36867    1.000
    N214     N        0.04762    0.52036    0.40458    1.000
    N215     N        0.02793    0.53601    0.47061    1.000
    N216     N        0.02629    0.58590    0.42322    1.000
    Si217    Si       0.01166    0.51993    0.37943    1.000
    Si218    Si       0.99117    0.61301    0.42104    1.000
    Si219    Si       0.99150    0.53914    0.49445    1.000
    Si220    Si       0.04613    0.55029    0.43619    1.000
    N221     N        0.99545    0.70085    0.43862    1.000
    N222     N        0.01983    0.64628    0.43116    1.000
    Si223    Si       0.00820    0.67112    0.46758    1.000
    Si224    Si       0.02069    0.68261    0.40638    1.000
    Si225    Si       0.01428    0.52966    0.57264    1.000
    N226     N        0.01082    0.51822    0.52847    1.000
    N227     N        0.02411    0.65222    0.55632    1.000
    N228     N        0.02967    0.70326    0.59831    1.000
    N229     N        0.01485    0.74538    0.54194    1.000
    Si230    Si       0.99910    0.72561    0.57805    1.000
    Si231    Si       0.04328    0.72403    0.51701    1.000
    N232     N        0.99187    0.74940    0.61309    1.000
    Si233    Si       0.98882    0.64016    0.58028    1.000
    Si234    Si       0.03540    0.64398    0.51461    1.000
    N235     N        0.03685    0.68548    0.49707    1.000
    N236     N        0.99642    0.62192    0.62304    1.000
    N237     N        0.98902    0.53241    0.71382    1.000
    N238     N        0.98996    0.56552    0.65365    1.000
    Si239    Si       0.01161    0.60294    0.66210    1.000
    Si240    Si       0.03033    0.52271    0.72116    1.000
    N241     N        0.00539    0.62868    0.69583    1.000
    Si242    Si       0.02792    0.73392    0.63088    1.000
    N243     N        0.03912    0.68039    0.72621    1.000
    N244     N        0.01721    0.72059    0.67139    1.000
    Si245    Si       0.03886    0.63751    0.72445    1.000
    Si246    Si       0.01657    0.54737    0.79247    1.000
    N247     N        0.99907    0.53821    0.83090    1.000
    Si248    Si       0.01440    0.56346    0.86264    1.000
    N249     N        0.03045    0.51829    0.76565    1.000
    N250     N        0.02748    0.62295    0.76226    1.000
    N251     N        0.99210    0.60088    0.86190    1.000
    N252     N        0.98544    0.56794    0.77021    1.000
    Si253    Si       0.98730    0.60982    0.76619    1.000
    N254     N        0.03932    0.64105    0.83050    1.000
    Si255    Si       0.00737    0.64214    0.86033    1.000
    N256     N        0.99942    0.69409    0.77975    1.000
    Si257    Si       0.03997    0.69829    0.76589    1.000
    Si258    Si       0.03035    0.74939    0.86469    1.000
    Si259    Si       0.01206    0.52761    0.93013    1.000
    N260     N        0.02277    0.55124    0.96639    1.000
    N261     N        0.99564    0.55390    0.90087    1.000
    N262     N        0.99121    0.60774    0.94067    1.000
    Si263    Si       0.99172    0.57991    0.97154    1.000
    N264     N        0.00951    0.74373    0.90126    1.000
    N265     N        0.02756    0.65467    0.89649    1.000
    N266     N        0.02670    0.72134    0.96861    1.000
    Si267    Si       0.03958    0.73839    0.93179    1.000
    Si268    Si       0.99811    0.64984    0.93252    1.000
    N269     N        0.03786    0.65769    0.95438    1.000
    Si270    Si       0.04268    0.68487    0.98664    1.000
    Si271    Si       0.00790    0.77695    0.02461    1.000
    N272     N        0.00954    0.83181    0.10382    1.000
    Si273    Si       0.02687    0.83860    0.06390    1.000
    N274     N        0.99190    0.81045    0.04991    1.000
    N275     N        0.03321    0.80250    0.99992    1.000
    N276     N        0.02100    0.88029    0.05367    1.000
    N277     N        0.99844    0.75805    0.10549    1.000
    N278     N        0.02352    0.00360    0.02585    1.000
    N279     N        0.02835    0.94499    0.10125    1.000
    Si280    Si       0.03411    0.90198    0.01506    1.000
    Si281    Si       0.03724    0.99241    0.10418    1.000
    Si282    Si       0.04176    0.91319    0.07572    1.000
    N283     N        0.01306    0.83146    0.17499    1.000
    Si284    Si       0.99650    0.85277    0.13919    1.000
    N285     N        0.00585    0.79351    0.22843    1.000
    Si286    Si       0.00551    0.92876    0.13327    1.000
    N287     N        0.01928    0.94592    0.17138    1.000
    N288     N        0.04172    0.89880    0.22727    1.000
    N289     N        0.01957    0.88798    0.13721    1.000
    Si290    Si       0.01979    0.98791    0.17887    1.000
    N291     N        0.04039    0.99546    0.21622    1.000
    N292     N        0.02133    0.84397    0.27631    1.000
    N293     N        0.01748    0.80544    0.32474    1.000
    Si294    Si       0.01142    0.80264    0.27214    1.000
    Si295    Si       0.03670    0.84588    0.31903    1.000
    N296     N        0.02314    0.85815    0.35952    1.000
    Si297    Si       0.01132    0.87825    0.25114    1.000
    N298     N        0.04484    0.77634    0.27623    1.000
    N299     N        0.02327    0.93908    0.34264    1.000
    N300     N        0.00362    0.91182    0.27824    1.000
    Si301    Si       0.03592    0.91931    0.30859    1.000
    N302     N        0.01321    0.99735    0.36233    1.000
    Si303    Si       0.01350    0.00299    0.25026    1.000
    N304     N        0.03651    0.00291    0.28646    1.000
    Si305    Si       0.04866    0.96927    0.36283    1.000
    N306     N        0.02404    0.81077    0.46803    1.000
    N307     N        0.01689    0.76237    0.41468    1.000
    Si308    Si       0.01735    0.85054    0.48572    1.000
    Si309    Si       0.01776    0.80524    0.42460    1.000
    N310     N        0.99803    0.93481    0.43896    1.000
    N311     N        0.98923    0.97665    0.49165    1.000
    N312     N        0.03643    0.88972    0.41771    1.000
    Si313    Si       0.99270    0.89353    0.42608    1.000
    Si314    Si       0.03998    0.93220    0.43178    1.000
    N315     N        0.00492    0.85111    0.52588    1.000
    Si316    Si       0.01267    0.81044    0.54537    1.000
    N317     N        0.00191    0.81997    0.58674    1.000
    Si318    Si       0.01077    0.85698    0.61143    1.000
    N319     N        0.02980    0.88474    0.58157    1.000
    Si320    Si       0.00668    0.89023    0.54465    1.000
    N321     N        0.02553    0.92024    0.52361    1.000
    Si322    Si       0.01408    0.96919    0.59548    1.000
    Si323    Si       0.01137    0.96222    0.52594    1.000
    N324     N        0.98777    0.97289    0.56119    1.000
    Si325    Si       0.02636    0.80096    0.61930    1.000
    N326     N        0.99459    0.76619    0.71834    1.000
    Si327    Si       0.01193    0.80261    0.69560    1.000
    Si328    Si       0.03589    0.85995    0.73564    1.000
    N329     N        0.00101    0.83781    0.71873    1.000
    N330     N        0.00099    0.79454    0.65538    1.000
    N331     N        0.04625    0.83689    0.62939    1.000
    N332     N        0.99784    0.92052    0.69009    1.000
    N333     N        0.03338    0.98840    0.74346    1.000
    Si334    Si       0.04176    0.91738    0.68487    1.000
    Si335    Si       0.99320    0.91580    0.64646    1.000
    N336     N        0.03781    0.91263    0.64239    1.000
    N337     N        0.00877    0.78746    0.77583    1.000
    Si338    Si       0.01055    0.80968    0.81311    1.000
    N339     N        0.03388    0.84573    0.81456    1.000
    N340     N        0.02861    0.78718    0.84389    1.000
    Si341    Si       0.01244    0.87521    0.84094    1.000
    Si342    Si       0.03112    0.76885    0.74416    1.000
    N343     N        0.02129    0.88924    0.76309    1.000
    Si344    Si       0.00264    0.97326    0.76787    1.000
    N345     N        0.02472    0.96700    0.80344    1.000
    N346     N        0.04116    0.90521    0.85380    1.000
    N347     N        0.00282    0.85324    0.87718    1.000
    Si348    Si       0.00341    0.86770    0.91886    1.000
    N349     N        0.03403    0.84577    0.94271    1.000
    Si350    Si       0.02518    0.80741    0.95771    1.000
    Si351    Si       0.00529    0.93729    0.95745    1.000
    N352     N        0.99784    0.91042    0.99084    1.000
    N353     N        0.01594    0.90882    0.92217    1.000
    Si354    Si       0.02604    0.00580    0.88693    1.000
    N355     N        0.03151    0.97093    0.96253    1.000
    N356     N        0.00750    0.96515    0.88190    1.000
    Si357    Si       0.03277    0.93020    0.88910    1.000
    Si358    Si       0.06212    0.09156    0.08120    1.000
    N359     N        0.08612    0.08189    0.04519    1.000
    Si360    Si       0.07382    0.10387    0.00999    1.000
    N361     N        0.06994    0.06201    0.11531    1.000
    N362     N        0.08032    0.13112    0.08653    1.000
    N363     N        0.07922    0.14895    0.01677    1.000
    N364     N        0.06379    0.22560    0.07731    1.000
    Si365    Si       0.09614    0.21056    0.09993    1.000
    Si366    Si       0.05429    0.15353    0.11274    1.000
    N367     N        0.05692    0.24939    0.01411    1.000
    Si368    Si       0.10039    0.15137    0.05452    1.000
    N369     N        0.06102    0.05372    0.18969    1.000
    Si370    Si       0.10436    0.05023    0.19677    1.000
    Si371    Si       0.04602    0.04707    0.14868    1.000
    Si372    Si       0.08184    0.18335    0.17270    1.000
    N373     N        0.09678    0.22282    0.17953    1.000
    N374     N        0.07842    0.18480    0.12924    1.000
    Si375    Si       0.06750    0.25539    0.18197    1.000
    Si376    Si       0.08150    0.02785    0.35125    1.000
    N377     N        0.08568    0.11443    0.31152    1.000
    Si378    Si       0.05766    0.09448    0.33824    1.000
    N379     N        0.06548    0.06718    0.26111    1.000
    N380     N        0.05679    0.05313    0.32674    1.000
    Si381    Si       0.09873    0.08677    0.27946    1.000
    N382     N        0.06816    0.18073    0.31737    1.000
    Si383    Si       0.07662    0.19819    0.27844    1.000
    N384     N        0.07921    0.16652    0.24914    1.000
    Si385    Si       0.10226    0.15408    0.32231    1.000
    N386     N        0.07917    0.09746    0.37739    1.000
    N387     N        0.06443    0.02902    0.39207    1.000
    Si388    Si       0.06493    0.07108    0.41180    1.000
    N389     N        0.04953    0.09821    0.44828    1.000
    N390     N        0.10427    0.06358    0.43020    1.000
    N391     N        0.10313    0.11022    0.49433    1.000
    Si392    Si       0.07210    0.12881    0.46977    1.000
    N393     N        0.07846    0.15563    0.43573    1.000
    Si394    Si       0.05930    0.24556    0.39087    1.000
    N395     N        0.08929    0.21843    0.48100    1.000
    Si396    Si       0.05269    0.19720    0.48833    1.000
    N397     N        0.04714    0.20452    0.38496    1.000
    N398     N        0.09185    0.03772    0.51354    1.000
    Si399    Si       0.08552    0.08003    0.52223    1.000
    Si400    Si       0.08926    0.12222    0.58327    1.000
    Si401    Si       0.06166    0.01201    0.49910    1.000
    N402     N        0.09751    0.08618    0.56237    1.000
    N403     N        0.09030    0.24935    0.54903    1.000
    N404     N        0.05886    0.15802    0.50278    1.000
    Si405    Si       0.04668    0.25109    0.54780    1.000
    N406     N        0.04998    0.13824    0.57991    1.000
    N407     N        0.09934    0.10931    0.62502    1.000
    N408     N        0.09666    0.10595    0.69271    1.000
    N409     N        0.06343    0.05988    0.65221    1.000
    Si410    Si       0.07132    0.10246    0.65758    1.000
    N411     N        0.09157    0.01187    0.73456    1.000
    Si412    Si       0.07577    0.12594    0.72354    1.000
    Si413    Si       0.10088    0.03691    0.65106    1.000
    N414     N        0.07282    0.19330    0.62621    1.000
    Si415    Si       0.05001    0.19092    0.72331    1.000
    Si416    Si       0.09670    0.25117    0.73499    1.000
    N417     N        0.06205    0.23170    0.71386    1.000
    Si418    Si       0.05570    0.23587    0.62517    1.000
    N419     N        0.08812    0.16966    0.71934    1.000
    Si420    Si       0.06988    0.04297    0.83537    1.000
    Si421    Si       0.07584    0.03955    0.76458    1.000
    N422     N        0.06500    0.08549    0.82324    1.000
    N423     N        0.07518    0.01638    0.80142    1.000
    Si424    Si       0.09428    0.10283    0.79549    1.000
    N425     N        0.10213    0.03786    0.86376    1.000
    N426     N        0.07287    0.12946    0.76793    1.000
    N427     N        0.10318    0.07174    0.76702    1.000
    N428     N        0.08823    0.22431    0.83033    1.000
    Si429    Si       0.09359    0.20598    0.86984    1.000
    Si430    Si       0.10961    0.23595    0.79385    1.000
    Si431    Si       0.05225    0.24849    0.83796    1.000
    N432     N        0.06682    0.02981    0.97956    1.000
    N433     N        0.05851    0.11671    0.88666    1.000
    Si434    Si       0.09944    0.02430    0.90466    1.000
    N435     N        0.10541    0.09162    0.98222    1.000
    Si436    Si       0.10673    0.04698    0.97499    1.000
    N437     N        0.05969    0.00937    0.91397    1.000
    Si438    Si       0.06484    0.15420    0.90792    1.000
    Si439    Si       0.08118    0.24748    0.97875    1.000
    N440     N        0.05562    0.24677    0.94422    1.000
    Si441    Si       0.08123    0.17527    0.98269    1.000
    N442     N        0.09173    0.15378    0.94252    1.000
    N443     N        0.05428    0.18778    0.88068    1.000
    N444     N        0.10507    0.23916    0.89476    1.000
    N445     N        0.08066    0.36071    0.04941    1.000
    Si446    Si       0.05286    0.33878    0.07756    1.000
    Si447    Si       0.06921    0.26224    0.05455    1.000
    N448     N        0.04945    0.29546    0.07829    1.000
    N449     N        0.06844    0.35142    0.11839    1.000
    Si450    Si       0.08315    0.39456    0.01930    1.000
    N451     N        0.08131    0.43037    0.04361    1.000
    Si452    Si       0.06587    0.43286    0.08291    1.000
    Si453    Si       0.09955    0.46531    0.02752    1.000
    N454     N        0.05347    0.46935    0.10518    1.000
    N455     N        0.09952    0.42529    0.11043    1.000
    N456     N        0.09171    0.50040    0.05130    1.000
    N457     N        0.07131    0.47593    0.99615    1.000
    N458     N        0.07352    0.27447    0.21942    1.000
    Si459    Si       0.06320    0.34111    0.21918    1.000
    N460     N        0.07685    0.28850    0.15637    1.000
    Si461    Si       0.05262    0.32167    0.14474    1.000
    N462     N        0.07914    0.49471    0.23625    1.000
    N463     N        0.06712    0.38385    0.22336    1.000
    Si464    Si       0.09131    0.46781    0.12580    1.000
    N465     N        0.09397    0.48479    0.16494    1.000
    Si466    Si       0.08447    0.39089    0.13582    1.000
    N467     N        0.04967    0.41073    0.15568    1.000
    N468     N        0.05963    0.37120    0.29624    1.000
    N469     N        0.07142    0.27709    0.28361    1.000
    N470     N        0.07401    0.26296    0.35453    1.000
    Si471    Si       0.04836    0.27438    0.32052    1.000
    Si472    Si       0.06775    0.38889    0.33546    1.000
    Si473    Si       0.08058    0.39545    0.26431    1.000
    N474     N        0.08411    0.43755    0.27419    1.000
    N475     N        0.07650    0.50253    0.34253    1.000
    N476     N        0.05711    0.37045    0.37348    1.000
    Si477    Si       0.08575    0.36431    0.40448    1.000
    Si478    Si       0.09168    0.37129    0.47434    1.000
    N479     N        0.07816    0.32256    0.41808    1.000
    Si480    Si       0.08147    0.25996    0.46647    1.000
    N481     N        0.08902    0.25667    0.42244    1.000
    N482     N        0.06890    0.34455    0.49839    1.000
    Si483    Si       0.06125    0.48725    0.38046    1.000
    Si484    Si       0.08284    0.43515    0.43537    1.000
    N485     N        0.08767    0.45971    0.40014    1.000
    N486     N        0.08435    0.39180    0.43767    1.000
    Si487    Si       0.06154    0.32758    0.53666    1.000
    N488     N        0.09873    0.31682    0.55836    1.000
    N489     N        0.08608    0.33669    0.62560    1.000
    N490     N        0.08493    0.46892    0.59905    1.000
    N491     N        0.05771    0.42460    0.52810    1.000
    Si492    Si       0.05312    0.43872    0.61123    1.000
    N493     N        0.08465    0.41023    0.61378    1.000
    Si494    Si       0.10233    0.42650    0.53410    1.000
    N495     N        0.06497    0.48494    0.49772    1.000
    N496     N        0.07579    0.32081    0.68895    1.000
    N497     N        0.08587    0.26418    0.64062    1.000
    Si498    Si       0.07030    0.30392    0.64825    1.000
    Si499    Si       0.06994    0.37596    0.63595    1.000
    N500     N        0.09364    0.38414    0.67183    1.000
    Si501    Si       0.07142    0.47932    0.67178    1.000
    N502     N        0.10139    0.45631    0.69400    1.000
    N503     N        0.08074    0.34718    0.84878    1.000
    N504     N        0.08265    0.26506    0.77436    1.000
    N505     N        0.05723    0.32637    0.75931    1.000
    N506     N        0.05074    0.29007    0.82432    1.000
    N507     N        0.07368    0.38172    0.79397    1.000
    N508     N        0.04815    0.45175    0.79209    1.000
    Si509    Si       0.06128    0.49114    0.77847    1.000
    Si510    Si       0.05860    0.46706    0.83229    1.000
    Si511    Si       0.08290    0.42408    0.79498    1.000
    N512     N        0.09305    0.44116    0.83400    1.000
    N513     N        0.09413    0.50069    0.75354    1.000
    N514     N        0.06907    0.50582    0.81850    1.000
    N515     N        0.09948    0.35379    0.97078    1.000
    Si516    Si       0.08225    0.31706    0.95557    1.000
    Si517    Si       0.09119    0.34460    0.89166    1.000
    N518     N        0.06315    0.36713    0.91559    1.000
    N519     N        0.08728    0.30609    0.91429    1.000
    Si520    Si       0.07297    0.26448    0.90889    1.000
    N521     N        0.10289    0.28682    0.98120    1.000
    N522     N        0.05907    0.40633    0.98475    1.000
    Si523    Si       0.06086    0.47166    0.90431    1.000
    N524     N        0.10409    0.46846    0.89848    1.000
    Si525    Si       0.07724    0.38673    0.95100    1.000
    Si526    Si       0.07500    0.58536    0.07540    1.000
    N527     N        0.09202    0.61553    0.04787    1.000
    N528     N        0.05921    0.60504    0.11245    1.000
    Si529    Si       0.08000    0.62846    0.00767    1.000
    Si530    Si       0.06439    0.51169    0.01963    1.000
    N531     N        0.08223    0.54746    0.00366    1.000
    Si532    Si       0.06695    0.73081    0.06469    1.000
    N533     N        0.08898    0.74941    0.10099    1.000
    N534     N        0.07945    0.66960    0.00455    1.000
    Si535    Si       0.05217    0.58089    0.19185    1.000
    N536     N        0.08530    0.55242    0.18178    1.000
    N537     N        0.06657    0.61960    0.18194    1.000
    Si538    Si       0.08394    0.62548    0.14390    1.000
    Si539    Si       0.09202    0.51174    0.19883    1.000
    N540     N        0.04806    0.59504    0.23389    1.000
    Si541    Si       0.06054    0.64122    0.22077    1.000
    N542     N        0.08412    0.67736    0.20500    1.000
    N543     N        0.08392    0.66573    0.13322    1.000
    Si544    Si       0.06468    0.71218    0.18417    1.000
    N545     N        0.04988    0.73558    0.21499    1.000
    N546     N        0.06791    0.55129    0.29144    1.000
    N547     N        0.07614    0.65141    0.35739    1.000
    Si548    Si       0.07985    0.73005    0.31987    1.000
    N549     N        0.06771    0.71450    0.28086    1.000
    N550     N        0.07882    0.64768    0.26321    1.000
    Si551    Si       0.06808    0.74805    0.25344    1.000
    N552     N        0.05308    0.75104    0.34760    1.000
    Si553    Si       0.04847    0.67813    0.27009    1.000
    N554     N        0.08543    0.56788    0.44598    1.000
    Si555    Si       0.05372    0.61719    0.44051    1.000
    N556     N        0.09159    0.62704    0.42571    1.000
    N557     N        0.05889    0.61989    0.48278    1.000
    Si558    Si       0.10272    0.56047    0.48589    1.000
    Si559    Si       0.10049    0.63382    0.49356    1.000
    N560     N        0.05670    0.70392    0.39645    1.000
    N561     N        0.06334    0.75071    0.48889    1.000
    Si562    Si       0.08959    0.68759    0.37618    1.000
    Si563    Si       0.04994    0.74608    0.39223    1.000
    Si564    Si       0.08612    0.55633    0.56315    1.000
    N565     N        0.07735    0.55015    0.52112    1.000
    N566     N        0.05346    0.53637    0.58719    1.000
    N567     N        0.09996    0.59391    0.57400    1.000
    Si568    Si       0.08382    0.51146    0.60592    1.000
    Si569    Si       0.04904    0.52113    0.50597    1.000
    N570     N        0.08388    0.64535    0.53162    1.000
    N571     N        0.08581    0.66393    0.59475    1.000
    N572     N        0.07208    0.71562    0.54746    1.000
    Si573    Si       0.05419    0.68120    0.57071    1.000
    Si574    Si       0.10280    0.63727    0.56764    1.000
    N575     N        0.05467    0.59230    0.66178    1.000
    Si576    Si       0.07781    0.55512    0.66944    1.000
    N577     N        0.06740    0.54356    0.71029    1.000
    N578     N        0.07904    0.51700    0.64885    1.000
    N579     N        0.08001    0.62235    0.71841    1.000
    Si580    Si       0.08002    0.62563    0.67596    1.000
    Si581    Si       0.05085    0.69987    0.68948    1.000
    N582     N        0.06346    0.66647    0.66458    1.000
    Si583    Si       0.09795    0.66943    0.63542    1.000
    N584     N        0.08464    0.72706    0.69767    1.000
    Si585    Si       0.09434    0.73855    0.73986    1.000
    Si586    Si       0.07590    0.54626    0.83015    1.000
    N587     N        0.09485    0.61500    0.79610    1.000
    Si588    Si       0.05078    0.61451    0.79804    1.000
    N589     N        0.05682    0.55840    0.86663    1.000
    N590     N        0.04852    0.57131    0.80491    1.000
    Si591    Si       0.06522    0.67485    0.83078    1.000
    N592     N        0.07382    0.68073    0.78747    1.000
    N593     N        0.05650    0.73818    0.75973    1.000
    N594     N        0.09346    0.67707    0.86267    1.000
    N595     N        0.04976    0.71688    0.84452    1.000
    Si596    Si       0.10641    0.60681    0.94019    1.000
    Si597    Si       0.06040    0.57051    0.97538    1.000
    Si598    Si       0.07358    0.54720    0.90640    1.000
    N599     N        0.07556    0.57695    0.93559    1.000
    N600     N        0.04999    0.51346    0.91449    1.000
    Si601    Si       0.06071    0.66755    0.91977    1.000
    Si602    Si       0.08535    0.72019    0.87533    1.000
    N603     N        0.06845    0.71055    0.91471    1.000
    N604     N        0.09456    0.64091    0.91770    1.000
    N605     N        0.06867    0.82874    0.05218    1.000
    Si606    Si       0.06924    0.79515    0.02340    1.000
    Si607    Si       0.09657    0.86060    0.06645    1.000
    N608     N        0.04636    0.76204    0.04262    1.000
    N609     N        0.10601    0.78286    0.00327    1.000
    N610     N        0.07241    0.88656    0.09210    1.000
    N611     N        0.07415    0.99108    0.07961    1.000
    Si612    Si       0.05784    0.97739    0.03913    1.000
    N613     N        0.09998    0.97456    0.02709    1.000
    N614     N        0.04427    0.93721    0.03827    1.000
    Si615    Si       0.05545    0.81917    0.17397    1.000
    N616     N        0.08160    0.84123    0.14555    1.000
    N617     N        0.07391    0.81901    0.21303    1.000
    N618     N        0.05451    0.77907    0.15675    1.000
    Si619    Si       0.09319    0.76145    0.14289    1.000
    Si620    Si       0.04736    0.92249    0.19224    1.000
    Si621    Si       0.06242    0.87864    0.13272    1.000
    N622     N        0.07590    0.90754    0.16035    1.000
    N623     N        0.08304    0.94534    0.21165    1.000
    Si624    Si       0.08303    0.98638    0.22011    1.000
    N625     N        0.07667    0.82656    0.32480    1.000
    Si626    Si       0.09276    0.86827    0.33486    1.000
    Si627    Si       0.05679    0.78729    0.31942    1.000
    N628     N        0.09859    0.76865    0.31169    1.000
    N629     N        0.05905    0.88305    0.31373    1.000
    Si630    Si       0.07372    0.98267    0.29430    1.000
    N631     N        0.07790    0.98675    0.33773    1.000
    N632     N        0.06560    0.94198    0.28436    1.000
    N633     N        0.09972    0.99531    0.26201    1.000
    Si634    Si       0.07485    0.91971    0.24844    1.000
    Si635    Si       0.05655    0.79287    0.48925    1.000
    N636     N        0.09051    0.87197    0.37799    1.000
    Si637    Si       0.09162    0.80168    0.42357    1.000
    N638     N        0.05606    0.82189    0.41030    1.000
    N639     N        0.09541    0.80435    0.46795    1.000
    Si640    Si       0.09906    0.84860    0.47948    1.000
    N641     N        0.05897    0.86534    0.48917    1.000
    Si642    Si       0.05121    0.86243    0.39144    1.000
    N643     N        0.08716    0.76232    0.40959    1.000
    N644     N        0.05691    0.96087    0.40468    1.000
    Si645    Si       0.06904    0.99693    0.42380    1.000
    Si646    Si       0.10231    0.95586    0.48443    1.000
    N647     N        0.08067    0.99036    0.46709    1.000
    N648     N        0.06723    0.92955    0.46459    1.000
    Si649    Si       0.09386    0.77842    0.61055    1.000
    N650     N        0.09263    0.81470    0.58637    1.000
    Si651    Si       0.09407    0.81481    0.54272    1.000
    N652     N        0.05325    0.80756    0.53026    1.000
    N653     N        0.09484    0.88911    0.59978    1.000
    Si654    Si       0.07831    0.95971    0.55255    1.000
    N655     N        0.09260    0.93076    0.52092    1.000
    Si656    Si       0.05717    0.91138    0.60291    1.000
    N657     N        0.05391    0.94927    0.58523    1.000
    Si658    Si       0.06057    0.90656    0.50110    1.000
    N659     N        0.05021    0.98130    0.52750    1.000
    Si660    Si       0.08573    0.84750    0.61239    1.000
    N661     N        0.05381    0.76725    0.62046    1.000
    Si662    Si       0.09072    0.81070    0.72740    1.000
    Si663    Si       0.09700    0.87266    0.71847    1.000
    N664     N        0.05115    0.79296    0.71410    1.000
    N665     N        0.05798    0.88256    0.70451    1.000
    N666     N        0.07781    0.00148    0.65515    1.000
    Si667    Si       0.07186    0.97137    0.73128    1.000
    Si668    Si       0.09815    0.96704    0.66875    1.000
    N669     N        0.06760    0.94991    0.69484    1.000
    Si670    Si       0.07002    0.80018    0.85105    1.000
    Si671    Si       0.07270    0.84808    0.79521    1.000
    N672     N        0.09456    0.81506    0.81753    1.000
    N673     N        0.07303    0.84218    0.75221    1.000
    N674     N        0.08644    0.88774    0.80179    1.000
    Si675    Si       0.06849    0.97396    0.80060    1.000
    Si676    Si       0.07983    0.90959    0.83800    1.000
    N677     N        0.08959    0.95119    0.82966    1.000
    N678     N        0.08486    0.95168    0.76753    1.000
    N679     N        0.07406    0.76327    0.87625    1.000
    N680     N        0.08511    0.82390    0.88384    1.000
    Si681    Si       0.08526    0.78851    0.90958    1.000
    Si682    Si       0.07232    0.86314    0.95408    1.000
    N683     N        0.05227    0.78008    0.93743    1.000
    N684     N        0.10639    0.84058    0.96871    1.000
    N685     N        0.09231    0.88331    0.92225    1.000
    N686     N        0.06716    0.88593    0.99184    1.000
    Si687    Si       0.06880    0.97591    0.93998    1.000
    Si688    Si       0.10267    0.91971    0.90224    1.000
    N689     N        0.06953    0.94480    0.90748    1.000
    N690     N        0.13540    0.08343    0.09809    1.000
    Si691    Si       0.12842    0.08775    0.05540    1.000
    N692     N        0.14898    0.01175    0.06843    1.000
    N693     N        0.13664    0.12862    0.04361    1.000
    Si694    Si       0.16312    0.02894    0.03306    1.000
    N695     N        0.11852    0.18521    0.07210    1.000
    N696     N        0.12164    0.24219    0.11706    1.000
    Si697    Si       0.15970    0.19309    0.07301    1.000
    N698     N        0.10913    0.00583    0.19079    1.000
    N699     N        0.13003    0.05278    0.23068    1.000
    Si700    Si       0.11195    0.06527    0.12877    1.000
    Si701    Si       0.13994    0.11870    0.17678    1.000
    N702     N        0.13160    0.02698    0.13486    1.000
    N703     N        0.11697    0.08277    0.16796    1.000
    Si704    Si       0.15460    0.08703    0.23974    1.000
    N705     N        0.16044    0.20352    0.16607    1.000
    Si706    Si       0.13282    0.23814    0.15955    1.000
    N707     N        0.15016    0.17973    0.23450    1.000
    Si708    Si       0.11586    0.15144    0.23244    1.000
    N709     N        0.11069    0.15139    0.18863    1.000
    N710     N        0.12157    0.04159    0.36189    1.000
    Si711    Si       0.14872    0.06056    0.33362    1.000
    N712     N        0.12571    0.05529    0.29642    1.000
    N713     N        0.15137    0.10335    0.34658    1.000
    Si714    Si       0.13072    0.02549    0.26340    1.000
    N715     N        0.12275    0.11306    0.25240    1.000
    Si716    Si       0.14886    0.19579    0.27418    1.000
    N717     N        0.14221    0.16159    0.30241    1.000
    N718     N        0.14108    0.22523    0.34882    1.000
    N719     N        0.11291    0.22218    0.27716    1.000
    N720     N        0.11506    0.15754    0.36262    1.000
    Si721    Si       0.12011    0.11462    0.37503    1.000
    Si722    Si       0.12272    0.03442    0.40375    1.000
    N723     N        0.13408    0.12147    0.41627    1.000
    Si724    Si       0.14199    0.08538    0.43742    1.000
    N725     N        0.16142    0.05293    0.41623    1.000
    Si726    Si       0.14312    0.12597    0.49470    1.000
    Si727    Si       0.14309    0.18889    0.37204    1.000
    Si728    Si       0.12246    0.15852    0.43270    1.000
    Si729    Si       0.13207    0.20608    0.48664    1.000
    N730     N        0.13892    0.16513    0.47376    1.000
    N731     N        0.14499    0.19070    0.41485    1.000
    Si732    Si       0.13162    0.06452    0.58133    1.000
    N733     N        0.14907    0.03711    0.55312    1.000
    N734     N        0.12319    0.03378    0.61371    1.000
    N735     N        0.15903    0.09746    0.59209    1.000
    Si736    Si       0.12104    0.01280    0.53399    1.000
    N737     N        0.13022    0.22330    0.60219    1.000
    Si738    Si       0.12755    0.23023    0.55964    1.000
    N739     N        0.13725    0.20108    0.53005    1.000
    Si740    Si       0.15192    0.16418    0.55590    1.000
    N741     N        0.11393    0.15784    0.57719    1.000
    Si742    Si       0.11244    0.18515    0.61213    1.000
    Si743    Si       0.14271    0.11798    0.62814    1.000
    Si744    Si       0.13483    0.08583    0.69346    1.000
    N745     N        0.12614    0.04414    0.68583    1.000
    Si746    Si       0.12958    0.01219    0.71397    1.000
    N747     N        0.16051    0.09854    0.66166    1.000
    N748     N        0.16274    0.09321    0.72365    1.000
    N749     N        0.16380    0.01953    0.73895    1.000
    N750     N        0.16303    0.24411    0.64885    1.000
    Si751    Si       0.12913    0.18586    0.73005    1.000
    N752     N        0.13782    0.15985    0.63851    1.000
    N753     N        0.14861    0.20139    0.69436    1.000
    N754     N        0.12176    0.12305    0.82117    1.000
    N755     N        0.15512    0.01691    0.82238    1.000
    Si756    Si       0.14492    0.02337    0.86305    1.000
    Si757    Si       0.13944    0.15527    0.84096    1.000
    N758     N        0.11941    0.21817    0.75629    1.000
    N759     N        0.15611    0.15768    0.74804    1.000
    N760     N        0.15644    0.18686    0.81568    1.000
    N761     N        0.14377    0.25436    0.80949    1.000
    N762     N        0.11395    0.16862    0.87565    1.000
    N763     N        0.11949    0.04832    0.93309    1.000
    N764     N        0.14511    0.11317    0.92568    1.000
    Si765    Si       0.15629    0.07157    0.92367    1.000
    Si766    Si       0.12087    0.12432    0.96008    1.000
    N767     N        0.13916    0.02325    0.99544    1.000
    N768     N        0.14228    0.15430    0.98397    1.000
    Si769    Si       0.14652    0.19574    0.96783    1.000
    Si770    Si       0.14508    0.15186    0.90285    1.000
    N771     N        0.15764    0.18631    0.92642    1.000
    N772     N        0.10636    0.21146    0.98042    1.000
    Si773    Si       0.12588    0.36007    0.04661    1.000
    N774     N        0.14600    0.32961    0.02436    1.000
    N775     N        0.13966    0.36883    0.08749    1.000
    Si776    Si       0.12853    0.29124    0.01597    1.000
    N777     N        0.10929    0.27581    0.05133    1.000
    Si778    Si       0.13768    0.26468    0.08306    1.000
    N779     N        0.12961    0.39506    0.01595    1.000
    Si780    Si       0.14083    0.41119    0.09878    1.000
    N781     N        0.13927    0.46441    0.01282    1.000
    N782     N        0.12467    0.49052    0.10882    1.000
    Si783    Si       0.15737    0.42694    0.02458    1.000
    Si784    Si       0.15651    0.50475    0.01353    1.000
    N785     N        0.14083    0.27723    0.17863    1.000
    Si786    Si       0.11419    0.29139    0.21132    1.000
    Si787    Si       0.11674    0.37472    0.21067    1.000
    Si788    Si       0.15401    0.37725    0.16361    1.000
    N789     N        0.10534    0.33332    0.21332    1.000
    N790     N        0.14064    0.45398    0.23132    1.000
    N791     N        0.11004    0.38166    0.16696    1.000
    N792     N        0.16057    0.38406    0.20626    1.000
    Si793    Si       0.13725    0.50016    0.15527    1.000
    Si794    Si       0.15454    0.41392    0.24510    1.000
    N795     N        0.13742    0.27462    0.31308    1.000
    Si796    Si       0.11377    0.26525    0.27730    1.000
    Si797    Si       0.14058    0.37147    0.35550    1.000
    Si798    Si       0.16182    0.30227    0.34170    1.000
    Si799    Si       0.11609    0.25964    0.34837    1.000
    N800     N        0.13918    0.28632    0.24763    1.000
    N801     N        0.13088    0.29409    0.37120    1.000
    N802     N        0.16229    0.34295    0.33142    1.000
    Si803    Si       0.10859    0.46831    0.25733    1.000
    N804     N        0.12140    0.38770    0.25302    1.000
    Si805    Si       0.11851    0.50099    0.32954    1.000
    N806     N        0.11025    0.39425    0.33557    1.000
    N807     N        0.12608    0.49286    0.28633    1.000
    Si808    Si       0.14123    0.42601    0.32982    1.000
    N809     N        0.13108    0.46324    0.34740    1.000
    N810     N        0.15919    0.42476    0.28876    1.000
    N811     N        0.16451    0.40753    0.36135    1.000
    N812     N        0.14031    0.30282    0.43365    1.000
    Si813    Si       0.15209    0.34426    0.42655    1.000
    Si814    Si       0.13459    0.31200    0.47500    1.000
    N815     N        0.12711    0.35996    0.39490    1.000
    N816     N        0.13394    0.35453    0.46761    1.000
    Si817    Si       0.10815    0.29255    0.40776    1.000
    N818     N        0.10671    0.28536    0.49172    1.000
    Si819    Si       0.16036    0.44658    0.45316    1.000
    Si820    Si       0.10762    0.48078    0.48925    1.000
    Si821    Si       0.14989    0.38446    0.49642    1.000
    Si822    Si       0.12734    0.47136    0.38891    1.000
    N823     N        0.11658    0.45169    0.45661    1.000
    N824     N        0.14643    0.35872    0.60533    1.000
    Si825    Si       0.11652    0.32704    0.59590    1.000
    Si826    Si       0.11388    0.28318    0.53505    1.000
    N827     N        0.15027    0.26600    0.55088    1.000
    N828     N        0.14290    0.29768    0.61796    1.000
    Si829    Si       0.15939    0.38563    0.57455    1.000
    N830     N        0.13064    0.41767    0.56727    1.000
    N831     N        0.12366    0.46475    0.52562    1.000
    Si832    Si       0.11854    0.43783    0.60373    1.000
    N833     N        0.15759    0.47151    0.59224    1.000
    N834     N        0.11044    0.39679    0.50449    1.000
    Si835    Si       0.16096    0.46584    0.54852    1.000
    Si836    Si       0.10862    0.34944    0.69277    1.000
    Si837    Si       0.15592    0.37541    0.73581    1.000
    N838     N        0.11623    0.35487    0.73435    1.000
    N839     N        0.14316    0.32919    0.67698    1.000
    N840     N        0.12123    0.29003    0.73167    1.000
    Si841    Si       0.15741    0.30563    0.71245    1.000
    Si842    Si       0.12830    0.25900    0.62884    1.000
    Si843    Si       0.16267    0.33394    0.63862    1.000
    Si844    Si       0.11781    0.42010    0.67588    1.000
    N845     N        0.15899    0.46876    0.74212    1.000
    N846     N        0.14996    0.40528    0.70318    1.000
    N847     N        0.14008    0.43504    0.64207    1.000
    Si848    Si       0.11604    0.46817    0.73493    1.000
    N849     N        0.14723    0.50584    0.64121    1.000
    N850     N        0.12252    0.32379    0.79836    1.000
    Si851    Si       0.14890    0.29654    0.82086    1.000
    N852     N        0.14779    0.29715    0.86652    1.000
    Si853    Si       0.10498    0.36215    0.81546    1.000
    Si854    Si       0.10329    0.31987    0.75831    1.000
    N855     N        0.13451    0.39274    0.80969    1.000
    Si856    Si       0.14784    0.42646    0.78430    1.000
    N857     N        0.14852    0.49075    0.86190    1.000
    Si858    Si       0.12847    0.44921    0.85889    1.000
    N859     N        0.11044    0.43668    0.76539    1.000
    N860     N        0.13185    0.35596    0.89635    1.000
    Si861    Si       0.14296    0.26223    0.88962    1.000
    Si862    Si       0.13575    0.38031    0.97247    1.000
    Si863    Si       0.13537    0.50017    0.90306    1.000
    Si864    Si       0.14603    0.39371    0.91202    1.000
    N865     N        0.15306    0.41766    0.87487    1.000
    N866     N        0.11527    0.40616    0.94175    1.000
    Si867    Si       0.12319    0.52025    0.07638    1.000
    Si868    Si       0.13827    0.59319    0.10374    1.000
    Si869    Si       0.13327    0.62357    0.04463    1.000
    N870     N        0.15318    0.58894    0.03247    1.000
    N871     N        0.15981    0.52038    0.05416    1.000
    N872     N        0.11195    0.56074    0.08758    1.000
    N873     N        0.14376    0.63224    0.08622    1.000
    N874     N        0.13685    0.70137    0.10456    1.000
    N875     N        0.14471    0.66086    0.02506    1.000
    Si876    Si       0.12590    0.73634    0.08132    1.000
    Si877    Si       0.11456    0.69126    0.01759    1.000
    Si878    Si       0.13261    0.75311    0.01719    1.000
    N879     N        0.10457    0.72278    0.04563    1.000
    N880     N        0.12066    0.60369    0.14230    1.000
    Si881    Si       0.12282    0.56757    0.16651    1.000
    N882     N        0.14639    0.57996    0.19961    1.000
    N883     N        0.15038    0.54030    0.14696    1.000
    Si884    Si       0.15203    0.54557    0.22517    1.000
    N885     N        0.13533    0.51475    0.20022    1.000
    Si886    Si       0.12992    0.73827    0.20549    1.000
    Si887    Si       0.12589    0.67158    0.20940    1.000
    N888     N        0.14360    0.67051    0.17050    1.000
    Si889    Si       0.11854    0.69300    0.14299    1.000
    N890     N        0.15194    0.70376    0.22540    1.000
    N891     N        0.14386    0.64034    0.23637    1.000
    N892     N        0.10353    0.72754    0.16875    1.000
    N893     N        0.13236    0.54252    0.32516    1.000
    N894     N        0.13083    0.55612    0.26156    1.000
    Si895    Si       0.15435    0.52627    0.28399    1.000
    Si896    Si       0.11190    0.62585    0.34765    1.000
    N897     N        0.11519    0.61052    0.30727    1.000
    Si898    Si       0.10991    0.56934    0.29610    1.000
    Si899    Si       0.14063    0.55523    0.36783    1.000
    Si900    Si       0.11928    0.64138    0.27637    1.000
    N901     N        0.14276    0.67532    0.28784    1.000
    Si902    Si       0.14470    0.69264    0.32720    1.000
    N903     N        0.14326    0.65454    0.35292    1.000
    N904     N        0.10728    0.70761    0.34221    1.000
    N905     N        0.11216    0.58750    0.37364    1.000
    N906     N        0.12437    0.52187    0.48788    1.000
    N907     N        0.15169    0.57027    0.42196    1.000
    N908     N        0.13672    0.51487    0.38608    1.000
    Si909    Si       0.11018    0.58823    0.41626    1.000
    N910     N        0.12529    0.59843    0.49326    1.000
    N911     N        0.12428    0.66592    0.47496    1.000
    N912     N        0.15654    0.63393    0.41133    1.000
    N913     N        0.13123    0.73956    0.46153    1.000
    Si914    Si       0.12504    0.65498    0.43227    1.000
    Si915    Si       0.14386    0.70368    0.48262    1.000
    N916     N        0.11828    0.69199    0.41096    1.000
    N917     N        0.14942    0.75065    0.38739    1.000
    Si918    Si       0.12270    0.73468    0.41829    1.000
    Si919    Si       0.14374    0.59289    0.57819    1.000
    N920     N        0.11668    0.53024    0.58385    1.000
    Si921    Si       0.15297    0.51307    0.59846    1.000
    N922     N        0.16336    0.59513    0.61483    1.000
    N923     N        0.14411    0.63163    0.56088    1.000
    N924     N        0.13890    0.71691    0.52420    1.000
    Si925    Si       0.14357    0.72725    0.61134    1.000
    N926     N        0.11506    0.74877    0.58785    1.000
    Si927    Si       0.10891    0.73839    0.54581    1.000
    N928     N        0.16262    0.69828    0.58747    1.000
    Si929    Si       0.14653    0.60448    0.65527    1.000
    N930     N        0.13873    0.52313    0.70909    1.000
    N931     N        0.11864    0.57156    0.66709    1.000
    Si932    Si       0.14715    0.53807    0.66978    1.000
    Si933    Si       0.10375    0.53804    0.73379    1.000
    Si934    Si       0.16346    0.71940    0.72736    1.000
    N935     N        0.15477    0.73906    0.69094    1.000
    N936     N        0.11462    0.63381    0.65169    1.000
    Si937    Si       0.11591    0.73847    0.67113    1.000
    N938     N        0.11566    0.70947    0.63994    1.000
    Si939    Si       0.12410    0.59469    0.81894    1.000
    N940     N        0.12380    0.60937    0.85949    1.000
    N941     N        0.11814    0.55295    0.82976    1.000
    Si942    Si       0.15289    0.53198    0.84043    1.000
    N943     N        0.12266    0.57559    0.74538    1.000
    Si944    Si       0.16390    0.57905    0.75802    1.000
    N945     N        0.16221    0.59308    0.79992    1.000
    Si946    Si       0.10509    0.61613    0.75237    1.000
    N947     N        0.13433    0.64658    0.75697    1.000
    N948     N        0.14244    0.68644    0.81360    1.000
    Si949    Si       0.11772    0.67926    0.77759    1.000
    Si950    Si       0.15020    0.70116    0.85254    1.000
    N951     N        0.12589    0.71242    0.75148    1.000
    N952     N        0.15465    0.53772    0.98453    1.000
    Si953    Si       0.13636    0.57535    0.88402    1.000
    N954     N        0.14404    0.59900    0.91944    1.000
    N955     N        0.11608    0.53968    0.89886    1.000
    N956     N        0.11063    0.60782    0.98322    1.000
    Si957    Si       0.14404    0.57989    0.99135    1.000
    N958     N        0.15587    0.66996    0.88264    1.000
    N959     N        0.12963    0.71856    0.99006    1.000
    N960     N        0.12861    0.72962    0.87566    1.000
    Si961    Si       0.14616    0.75569    0.90429    1.000
    Si962    Si       0.11870    0.64685    0.88027    1.000
    N963     N        0.12436    0.83323    0.08630    1.000
    Si964    Si       0.15600    0.80964    0.06633    1.000
    N965     N        0.14507    0.76701    0.05916    1.000
    Si966    Si       0.10905    0.87705    0.00024    1.000
    N967     N        0.11668    0.88916    0.03969    1.000
    N968     N        0.15842    0.95112    0.01263    1.000
    N969     N        0.13794    0.94716    0.07926    1.000
    Si970    Si       0.14591    0.92245    0.04484    1.000
    Si971    Si       0.11543    0.98217    0.06774    1.000
    Si972    Si       0.15696    0.94705    0.11788    1.000
    Si973    Si       0.15627    0.79329    0.17777    1.000
    N974     N        0.14523    0.81660    0.21206    1.000
    N975     N        0.15368    0.84999    0.14311    1.000
    Si976    Si       0.11972    0.82863    0.12889    1.000
    N977     N        0.12438    0.78906    0.14941    1.000
    Si978    Si       0.11032    0.80581    0.23373    1.000
    N979     N        0.10830    0.76116    0.23776    1.000
    Si980    Si       0.10729    0.93154    0.17565    1.000
    Si981    Si       0.13919    0.99320    0.16266    1.000
    N982     N        0.13824    0.90580    0.19236    1.000
    Si983    Si       0.14819    0.90835    0.23447    1.000
    Si984    Si       0.16414    0.88443    0.16624    1.000
    N985     N        0.12461    0.95598    0.14644    1.000
    N986     N        0.14442    0.81353    0.34149    1.000
    Si987    Si       0.13195    0.86657    0.27682    1.000
    N988     N        0.13251    0.87281    0.31767    1.000
    N989     N        0.11896    0.82475    0.27190    1.000
    Si990    Si       0.11465    0.80795    0.31108    1.000
    Si991    Si       0.16088    0.85256    0.34275    1.000
    N992     N        0.11113    0.89756    0.25457    1.000
    Si993    Si       0.12460    0.77565    0.48513    1.000
    N994     N        0.11873    0.86974    0.44671    1.000
    Si995    Si       0.12347    0.86037    0.40485    1.000
    N996     N        0.12717    0.81722    0.40624    1.000
    Si997    Si       0.15367    0.79320    0.38116    1.000
    N998     N        0.15758    0.87615    0.38033    1.000
    Si999    Si       0.14970    0.89898    0.46240    1.000
    Si1000   Si       0.14664    0.96807    0.42646    1.000
    N1001    N        0.13322    0.93903    0.45520    1.000
    N1002    N        0.11712    0.99325    0.41089    1.000
    N1003    N        0.11584    0.84474    0.51997    1.000
    Si1004   Si       0.15459    0.86088    0.53303    1.000
    N1005    N        0.11920    0.77862    0.52886    1.000
    Si1006   Si       0.16337    0.78856    0.53579    1.000
    Si1007   Si       0.13750    0.88168    0.60552    1.000
    N1008    N        0.15992    0.88560    0.56758    1.000
    Si1009   Si       0.13178    0.99201    0.60132    1.000
    N1010    N        0.13403    0.98240    0.50578    1.000
    N1011    N        0.10830    0.98634    0.56491    1.000
    Si1012   Si       0.13168    0.81793    0.66446    1.000
    N1013    N        0.12665    0.84669    0.63257    1.000
    N1014    N        0.11242    0.77828    0.65189    1.000
    N1015    N        0.11412    0.83411    0.70175    1.000
    Si1016   Si       0.14243    0.93625    0.72276    1.000
    N1017    N        0.12689    0.96055    0.63376    1.000
    Si1018   Si       0.16056    0.94004    0.65103    1.000
    N1019    N        0.12746    0.97123    0.70098    1.000
    N1020    N        0.11675    0.90520    0.73702    1.000
    N1021    N        0.14698    0.77323    0.81363    1.000
    Si1022   Si       0.13909    0.81668    0.81045    1.000
    Si1023   Si       0.14998    0.77347    0.76973    1.000
    N1024    N        0.15581    0.84282    0.84105    1.000
    N1025    N        0.15813    0.81817    0.77074    1.000
    N1026    N        0.11138    0.77678    0.74522    1.000
    Si1027   Si       0.14870    0.88613    0.83748    1.000
    N1028    N        0.14889    0.90828    0.80072    1.000
    N1029    N        0.11170    0.89513    0.86307    1.000
    Si1030   Si       0.11094    0.91861    0.77994    1.000
    N1031    N        0.12152    0.77782    0.93170    1.000
    N1032    N        0.15198    0.85628    0.90651    1.000
    Si1033   Si       0.12686    0.79961    0.96843    1.000
    Si1034   Si       0.14626    0.85467    0.95123    1.000
    Si1035   Si       0.10844    0.86001    0.88786    1.000
    N1036    N        0.16560    0.81922    0.96366    1.000
    N1037    N        0.14987    0.88293    0.98527    1.000
    Si1038   Si       0.14388    0.97247    0.92630    1.000
    N1039    N        0.10854    0.97640    0.95409    1.000
    N1040    N        0.14383    0.92983    0.91684    1.000
    N1041    N        0.13352    0.99495    0.89266    1.000
    Si1042   Si       0.12782    0.97815    0.99372    1.000
    N1043    N        0.20242    0.11333    0.08248    1.000
    Si1044   Si       0.20314    0.09262    0.04177    1.000
    Si1045   Si       0.17502    0.09661    0.11240    1.000
    N1046    N        0.20203    0.12479    0.01250    1.000
    N1047    N        0.16547    0.07001    0.03861    1.000
    N1048    N        0.19161    0.05684    0.11706    1.000
    Si1049   Si       0.16447    0.02501    0.10727    1.000
    N1050    N        0.19987    0.01056    0.01118    1.000
    N1051    N        0.18757    0.18045    0.10137    1.000
    N1052    N        0.18138    0.18289    0.03403    1.000
    Si1053   Si       0.18190    0.23222    0.02264    1.000
    Si1054   Si       0.16550    0.14659    0.01828    1.000
    Si1055   Si       0.21961    0.15278    0.08956    1.000
    N1056    N        0.16270    0.23550    0.06359    1.000
    Si1057   Si       0.21169    0.12164    0.19927    1.000
    N1058    N        0.17229    0.10557    0.20465    1.000
    N1059    N        0.21816    0.02847    0.16934    1.000
    N1060    N        0.16255    0.13065    0.13937    1.000
    N1061    N        0.20219    0.22309    0.21722    1.000
    Si1062   Si       0.17864    0.19130    0.20459    1.000
    Si1063   Si       0.18198    0.17084    0.14407    1.000
    N1064    N        0.20308    0.16117    0.18336    1.000
    Si1065   Si       0.19109    0.03403    0.28260    1.000
    N1066    N        0.18288    0.03652    0.32448    1.000
    N1067    N        0.18977    0.07514    0.26108    1.000
    Si1068   Si       0.21080    0.01559    0.34989    1.000
    N1069    N        0.20834    0.13055    0.30889    1.000
    Si1070   Si       0.21913    0.10580    0.27229    1.000
    Si1071   Si       0.17063    0.24215    0.32099    1.000
    N1072    N        0.18183    0.21867    0.28627    1.000
    Si1073   Si       0.21228    0.23748    0.25717    1.000
    N1074    N        0.18215    0.16964    0.36051    1.000
    Si1075   Si       0.16984    0.14053    0.33040    1.000
    Si1076   Si       0.19039    0.02603    0.43020    1.000
    Si1077   Si       0.20626    0.08591    0.46891    1.000
    N1078    N        0.21772    0.04638    0.45507    1.000
    N1079    N        0.20277    0.01069    0.39198    1.000
    N1080    N        0.16526    0.09552    0.47256    1.000
    Si1081   Si       0.21540    0.19057    0.37660    1.000
    N1082    N        0.16339    0.23107    0.47066    1.000
    Si1083   Si       0.17842    0.20378    0.43923    1.000
    N1084    N        0.21166    0.17745    0.45876    1.000
    N1085    N        0.20484    0.21874    0.40841    1.000
    Si1086   Si       0.20229    0.09217    0.59431    1.000
    N1087    N        0.20723    0.04940    0.58589    1.000
    Si1088   Si       0.18677    0.01822    0.56069    1.000
    Si1089   Si       0.21090    0.12186    0.53379    1.000
    N1090    N        0.16827    0.13226    0.52949    1.000
    N1091    N        0.18000    0.18302    0.58305    1.000
    N1092    N        0.20299    0.24958    0.59221    1.000
    Si1093   Si       0.21195    0.16511    0.60616    1.000
    Si1094   Si       0.17815    0.22102    0.61389    1.000
    N1095    N        0.20955    0.25563    0.51573    1.000
    N1096    N        0.20416    0.12634    0.62113    1.000
    Si1097   Si       0.20195    0.11236    0.66221    1.000
    Si1098   Si       0.18313    0.13174    0.72655    1.000
    Si1099   Si       0.16747    0.17499    0.66410    1.000
    Si1100   Si       0.22362    0.18180    0.68021    1.000
    Si1101   Si       0.17624    0.23481    0.68994    1.000
    N1102    N        0.19505    0.14858    0.68875    1.000
    N1103    N        0.21018    0.21382    0.70670    1.000
    N1104    N        0.19989    0.19087    0.64199    1.000
    N1105    N        0.19449    0.06430    0.78415    1.000
    Si1106   Si       0.19534    0.02832    0.80699    1.000
    Si1107   Si       0.21879    0.10088    0.78609    1.000
    N1108    N        0.21789    0.03228    0.84313    1.000
    Si1109   Si       0.18248    0.05946    0.74080    1.000
    N1110    N        0.22042    0.11878    0.74669    1.000
    N1111    N        0.19800    0.13219    0.80801    1.000
    Si1112   Si       0.16821    0.22695    0.82963    1.000
    Si1113   Si       0.20838    0.13550    0.85072    1.000
    N1114    N        0.21049    0.23412    0.82247    1.000
    Si1115   Si       0.17870    0.16545    0.78602    1.000
    N1116    N        0.21599    0.18727    0.77504    1.000
    N1117    N        0.16559    0.22969    0.87211    1.000
    N1118    N        0.17227    0.14453    0.86887    1.000
    Si1119   Si       0.20927    0.06125    0.87190    1.000
    N1120    N        0.18508    0.05624    0.95040    1.000
    N1121    N        0.16700    0.05497    0.88396    1.000
    Si1122   Si       0.17675    0.02056    0.97370    1.000
    N1123    N        0.18205    0.21952    0.97831    1.000
    Si1124   Si       0.18201    0.21929    0.91097    1.000
    Si1125   Si       0.20329    0.29763    0.08077    1.000
    Si1126   Si       0.18337    0.31340    0.01002    1.000
    N1127    N        0.21358    0.30634    0.04015    1.000
    N1128    N        0.20940    0.33683    0.09841    1.000
    N1129    N        0.16714    0.27097    0.00810    1.000
    Si1130   Si       0.16739    0.34022    0.10557    1.000
    N1131    N        0.16045    0.29787    0.09337    1.000
    Si1132   Si       0.20901    0.43527    0.07715    1.000
    N1133    N        0.19951    0.49662    0.99946    1.000
    N1134    N        0.21257    0.46090    0.11205    1.000
    N1135    N        0.16611    0.42925    0.06773    1.000
    N1136    N        0.19497    0.42347    0.00154    1.000
    N1137    N        0.21409    0.27935    0.16550    1.000
    N1138    N        0.18675    0.31987    0.21029    1.000
    Si1139   Si       0.19452    0.36212    0.22316    1.000
    Si1140   Si       0.17635    0.30317    0.17346    1.000
    N1141    N        0.16566    0.33817    0.14992    1.000
    N1142    N        0.16977    0.47411    0.16791    1.000
    N1143    N        0.20201    0.41356    0.24418    1.000
    Si1144   Si       0.18816    0.44378    0.14508    1.000
    N1145    N        0.21055    0.47161    0.21920    1.000
    Si1146   Si       0.16813    0.48371    0.21168    1.000
    N1147    N        0.16485    0.40910    0.13506    1.000
    Si1148   Si       0.19614    0.35460    0.30455    1.000
    N1149    N        0.18667    0.34757    0.26433    1.000
    N1150    N        0.20971    0.28047    0.26682    1.000
    N1151    N        0.19215    0.27275    0.34282    1.000
    Si1152   Si       0.17770    0.30578    0.25021    1.000
    Si1153   Si       0.20200    0.42857    0.28432    1.000
    Si1154   Si       0.21280    0.49636    0.25589    1.000
    N1155    N        0.21365    0.46939    0.29247    1.000
    N1156    N        0.21463    0.39350    0.30921    1.000
    N1157    N        0.21879    0.44265    0.35627    1.000
    N1158    N        0.19780    0.50792    0.35498    1.000
    N1159    N        0.21545    0.27921    0.45187    1.000
    N1160    N        0.19482    0.34574    0.42947    1.000
    Si1161   Si       0.18396    0.26656    0.48136    1.000
    Si1162   Si       0.22140    0.32232    0.45520    1.000
    Si1163   Si       0.21902    0.49606    0.45214    1.000
    Si1164   Si       0.17797    0.50337    0.39407    1.000
    Si1165   Si       0.19131    0.42937    0.38744    1.000
    N1166    N        0.21155    0.41017    0.42172    1.000
    N1167    N        0.18050    0.48214    0.47087    1.000
    N1168    N        0.17422    0.41662    0.48044    1.000
    N1169    N        0.16656    0.46038    0.40841    1.000
    Si1170   Si       0.19233    0.33134    0.52300    1.000
    N1171    N        0.20618    0.31065    0.55807    1.000
    Si1172   Si       0.19321    0.27010    0.55320    1.000
    N1173    N        0.16715    0.36664    0.53352    1.000
    N1174    N        0.16981    0.30383    0.49875    1.000
    N1175    N        0.19565    0.40208    0.59103    1.000
    N1176    N        0.19904    0.44560    0.54076    1.000
    Si1177   Si       0.20895    0.42712    0.50307    1.000
    N1178    N        0.17549    0.50611    0.53691    1.000
    N1179    N        0.20453    0.35319    0.64531    1.000
    N1180    N        0.17881    0.33870    0.73237    1.000
    N1181    N        0.18693    0.27451    0.70577    1.000
    Si1182   Si       0.22192    0.38416    0.61851    1.000
    Si1183   Si       0.17494    0.43287    0.72328    1.000
    N1184    N        0.20909    0.47612    0.64184    1.000
    Si1185   Si       0.16780    0.46729    0.63666    1.000
    N1186    N        0.21371    0.43822    0.70651    1.000
    N1187    N        0.19115    0.30046    0.80605    1.000
    Si1188   Si       0.20828    0.33759    0.81966    1.000
    N1189    N        0.17615    0.35446    0.84379    1.000
    Si1190   Si       0.18440    0.47633    0.83951    1.000
    N1191    N        0.17914    0.40515    0.75816    1.000
    N1192    N        0.21203    0.40376    0.82734    1.000
    Si1193   Si       0.21381    0.39879    0.78360    1.000
    Si1194   Si       0.16993    0.39820    0.83856    1.000
    N1195    N        0.21598    0.46865    0.86874    1.000
    N1196    N        0.16335    0.44602    0.81838    1.000
    N1197    N        0.19966    0.33440    0.90534    1.000
    N1198    N        0.18948    0.31162    0.96811    1.000
    Si1199   Si       0.18589    0.26508    0.96628    1.000
    Si1200   Si       0.20190    0.34648    0.94662    1.000
    N1201    N        0.17219    0.38191    0.94707    1.000
    N1202    N        0.17009    0.25754    0.92689    1.000
    Si1203   Si       0.16444    0.33305    0.87993    1.000
    Si1204   Si       0.20435    0.40881    0.96262    1.000
    N1205    N        0.21749    0.43221    0.92912    1.000
    Si1206   Si       0.20770    0.47132    0.91146    1.000
    N1207    N        0.17252    0.49388    0.92709    1.000
    Si1208   Si       0.18015    0.56024    0.05416    1.000
    N1209    N        0.17684    0.57650    0.09574    1.000
    N1210    N        0.21491    0.56457    0.02896    1.000
    Si1211   Si       0.21359    0.60065    0.00289    1.000
    N1212    N        0.21451    0.63558    0.02623    1.000
    N1213    N        0.19170    0.69123    0.06224    1.000
    Si1214   Si       0.18746    0.67044    0.02218    1.000
    Si1215   Si       0.16559    0.67045    0.09381    1.000
    N1216    N        0.21860    0.52656    0.12031    1.000
    N1217    N        0.21469    0.57478    0.15948    1.000
    Si1218   Si       0.18883    0.55605    0.13209    1.000
    Si1219   Si       0.16900    0.61366    0.21425    1.000
    N1220    N        0.19946    0.58917    0.23644    1.000
    N1221    N        0.19742    0.63512    0.19005    1.000
    Si1222   Si       0.18731    0.67146    0.16699    1.000
    N1223    N        0.20734    0.70923    0.17964    1.000
    Si1224   Si       0.19056    0.72577    0.21715    1.000
    Si1225   Si       0.21059    0.75415    0.16640    1.000
    N1226    N        0.19405    0.66218    0.12607    1.000
    N1227    N        0.16883    0.75507    0.19369    1.000
    N1228    N        0.19383    0.54360    0.29789    1.000
    Si1229   Si       0.20425    0.54871    0.33892    1.000
    Si1230   Si       0.21839    0.56436    0.26715    1.000
    N1231    N        0.17595    0.51372    0.24593    1.000
    N1232    N        0.20383    0.72433    0.25753    1.000
    Si1233   Si       0.20572    0.73461    0.30095    1.000
    N1234    N        0.17922    0.71952    0.33325    1.000
    N1235    N        0.21045    0.65997    0.25882    1.000
    Si1236   Si       0.17102    0.67471    0.25572    1.000
    N1237    N        0.17890    0.57551    0.36272    1.000
    Si1238   Si       0.18297    0.60117    0.39731    1.000
    Si1239   Si       0.18693    0.55939    0.44449    1.000
    N1240    N        0.20092    0.52359    0.42452    1.000
    N1241    N        0.21122    0.59190    0.42973    1.000
    N1242    N        0.18404    0.55477    0.48706    1.000
    N1243    N        0.21025    0.63174    0.37826    1.000
    N1244    N        0.20315    0.75585    0.43831    1.000
    N1245    N        0.18724    0.69978    0.47533    1.000
    Si1246   Si       0.17578    0.66038    0.38251    1.000
    Si1247   Si       0.18777    0.73268    0.37522    1.000
    Si1248   Si       0.20383    0.71332    0.43874    1.000
    N1249    N        0.18885    0.69728    0.40014    1.000
    Si1250   Si       0.19310    0.54109    0.55397    1.000
    N1251    N        0.19513    0.53330    0.59862    1.000
    N1252    N        0.19515    0.61731    0.51787    1.000
    Si1253   Si       0.16507    0.58661    0.50726    1.000
    N1254    N        0.16232    0.56951    0.54775    1.000
    Si1255   Si       0.16709    0.51551    0.49607    1.000
    N1256    N        0.20069    0.68113    0.53598    1.000
    Si1257   Si       0.18470    0.64399    0.55070    1.000
    N1258    N        0.20467    0.64503    0.58934    1.000
    Si1259   Si       0.19921    0.68340    0.60628    1.000
    Si1260   Si       0.17364    0.71385    0.54866    1.000
    N1261    N        0.18479    0.75785    0.55648    1.000
    Si1262   Si       0.20885    0.75646    0.59208    1.000
    Si1263   Si       0.22226    0.68847    0.50032    1.000
    Si1264   Si       0.20000    0.57189    0.62272    1.000
    Si1265   Si       0.22115    0.54489    0.68006    1.000
    Si1266   Si       0.17362    0.50842    0.73005    1.000
    Si1267   Si       0.21183    0.61053    0.70513    1.000
    N1268    N        0.18404    0.55766    0.66130    1.000
    N1269    N        0.17911    0.62198    0.67751    1.000
    N1270    N        0.21144    0.51008    0.70676    1.000
    N1271    N        0.18992    0.60744    0.74109    1.000
    Si1272   Si       0.19497    0.66391    0.68427    1.000
    N1273    N        0.19127    0.68260    0.64841    1.000
    N1274    N        0.17741    0.75175    0.62429    1.000
    N1275    N        0.18240    0.68070    0.72361    1.000
    Si1276   Si       0.20128    0.60646    0.80801    1.000
    Si1277   Si       0.21183    0.53445    0.78972    1.000
    N1278    N        0.20808    0.61114    0.85311    1.000
    N1279    N        0.18329    0.54047    0.75810    1.000
    N1280    N        0.18791    0.51416    0.82007    1.000
    N1281    N        0.17184    0.55860    0.86751    1.000
    N1282    N        0.20553    0.64673    0.78810    1.000
    N1283    N        0.18749    0.72338    0.84729    1.000
    Si1284   Si       0.17810    0.64810    0.75289    1.000
    N1285    N        0.18053    0.75313    0.74975    1.000
    Si1286   Si       0.20920    0.57648    0.87691    1.000
    Si1287   Si       0.18204    0.61173    0.93375    1.000
    N1288    N        0.18012    0.59872    0.97523    1.000
    Si1289   Si       0.18538    0.51910    0.96016    1.000
    N1290    N        0.21025    0.58468    0.91770    1.000
    N1291    N        0.22168    0.54271    0.96628    1.000
    N1292    N        0.19785    0.70042    0.99341    1.000
    N1293    N        0.16701    0.72701    0.93027    1.000
    Si1294   Si       0.18088    0.68623    0.91202    1.000
    N1295    N        0.19711    0.65130    0.93281    1.000
    Si1296   Si       0.16918    0.72819    0.97270    1.000
    N1297    N        0.18767    0.80560    0.09549    1.000
    Si1298   Si       0.17752    0.87166    0.01630    1.000
    Si1299   Si       0.18726    0.80482    0.00038    1.000
    N1300    N        0.17099    0.76368    0.99560    1.000
    N1301    N        0.21556    0.87059    0.99342    1.000
    N1302    N        0.16856    0.83047    0.02983    1.000
    N1303    N        0.18347    0.89980    0.04966    1.000
    Si1304   Si       0.20200    0.96428    0.01158    1.000
    Si1305   Si       0.22617    0.91152    0.06067    1.000
    N1306    N        0.22623    0.95315    0.04686    1.000
    N1307    N        0.21065    0.81126    0.23849    1.000
    Si1308   Si       0.17810    0.83959    0.23112    1.000
    Si1309   Si       0.19142    0.83042    0.13050    1.000
    N1310    N        0.19862    0.80289    0.16352    1.000
    N1311    N        0.18964    0.86625    0.19716    1.000
    N1312    N        0.22423    0.85846    0.12424    1.000
    N1313    N        0.17785    0.98576    0.12688    1.000
    N1314    N        0.17934    0.91482    0.13663    1.000
    Si1315   Si       0.21967    0.89886    0.13250    1.000
    Si1316   Si       0.18661    0.97794    0.22966    1.000
    Si1317   Si       0.20334    0.98930    0.16143    1.000
    N1318    N        0.17122    0.98332    0.18899    1.000
    N1319    N        0.20158    0.84782    0.33281    1.000
    N1320    N        0.21187    0.77927    0.30399    1.000
    Si1321   Si       0.21566    0.80682    0.33805    1.000
    N1322    N        0.16982    0.87365    0.25785    1.000
    Si1323   Si       0.19935    0.90675    0.26692    1.000
    N1324    N        0.21355    0.91379    0.30767    1.000
    N1325    N        0.21581    0.97325    0.34318    1.000
    N1326    N        0.17745    0.93754    0.24631    1.000
    N1327    N        0.16921    0.00626    0.25863    1.000
    N1328    N        0.16665    0.78736    0.49172    1.000
    Si1329   Si       0.21627    0.86362    0.44538    1.000
    N1330    N        0.19821    0.79576    0.37580    1.000
    N1331    N        0.20484    0.82293    0.43879    1.000
    Si1332   Si       0.20011    0.78904    0.46601    1.000
    Si1333   Si       0.18207    0.90688    0.39653    1.000
    Si1334   Si       0.20815    0.96677    0.38657    1.000
    Si1335   Si       0.17640    0.97591    0.49378    1.000
    N1336    N        0.18349    0.89148    0.43727    1.000
    N1337    N        0.21983    0.90385    0.37522    1.000
    N1338    N        0.20469    0.94451    0.48744    1.000
    N1339    N        0.16907    0.94915    0.39380    1.000
    N1340    N        0.17273    0.99253    0.45073    1.000
    N1341    N        0.17978    0.82625    0.54603    1.000
    Si1342   Si       0.21626    0.83314    0.57178    1.000
    N1343    N        0.21766    0.86420    0.60320    1.000
    N1344    N        0.17393    0.98962    0.59166    1.000
    Si1345   Si       0.19582    0.89886    0.58601    1.000
    Si1346   Si       0.20982    0.97556    0.61037    1.000
    Si1347   Si       0.20347    0.90439    0.50513    1.000
    N1348    N        0.20010    0.99922    0.52279    1.000
    N1349    N        0.21806    0.93773    0.58990    1.000
    N1350    N        0.16485    0.88698    0.49976    1.000
    Si1351   Si       0.18276    0.76021    0.66665    1.000
    Si1352   Si       0.21584    0.77131    0.72942    1.000
    N1353    N        0.20853    0.86549    0.67742    1.000
    Si1354   Si       0.21020    0.82166    0.67865    1.000
    N1355    N        0.17356    0.80317    0.66441    1.000
    N1356    N        0.20561    0.81153    0.72108    1.000
    N1357    N        0.22221    0.75656    0.68797    1.000
    Si1358   Si       0.19612    0.89638    0.70364    1.000
    N1359    N        0.19735    0.96400    0.65224    1.000
    N1360    N        0.16692    0.90687    0.62346    1.000
    N1361    N        0.16410    0.92001    0.69052    1.000
    N1362    N        0.22282    0.98951    0.71493    1.000
    Si1363   Si       0.19191    0.98769    0.74706    1.000
    Si1364   Si       0.19490    0.83681    0.75460    1.000
    Si1365   Si       0.17863    0.76584    0.84244    1.000
    N1366    N        0.21174    0.78507    0.82471    1.000
    N1367    N        0.18923    0.88003    0.74602    1.000
    Si1368   Si       0.18532    0.91292    0.77591    1.000
    N1369    N        0.17866    0.90363    0.86257    1.000
    N1370    N        0.21184    0.99840    0.78301    1.000
    N1371    N        0.17155    0.94847    0.75328    1.000
    Si1372   Si       0.21607    0.91837    0.84807    1.000
    N1373    N        0.21699    0.91183    0.80483    1.000
    N1374    N        0.22024    0.95998    0.85512    1.000
    Si1375   Si       0.17625    0.82909    0.87824    1.000
    N1376    N        0.21832    0.83416    0.88734    1.000
    N1377    N        0.17004    0.78581    0.88094    1.000
    Si1378   Si       0.16983    0.89753    0.90474    1.000
    N1379    N        0.20626    0.89088    0.92684    1.000
    N1380    N        0.17349    0.98445    0.95320    1.000
    N1381    N        0.22462    0.94325    0.98103    1.000
    Si1382   Si       0.22452    0.90155    0.96551    1.000
    Si1383   Si       0.23824    0.03280    0.01256    1.000
    N1384    N        0.23737    0.07025    0.03184    1.000
    N1385    N        0.27201    0.12273    0.00192    1.000
    Si1386   Si       0.27612    0.09281    0.03213    1.000
    N1387    N        0.26999    0.00992    0.03010    1.000
    N1388    N        0.24642    0.16616    0.05803    1.000
    Si1389   Si       0.25226    0.24739    0.06933    1.000
    N1390    N        0.27043    0.21555    0.09080    1.000
    N1391    N        0.22455    0.22956    0.03701    1.000
    Si1392   Si       0.22458    0.18738    0.02842    1.000
    Si1393   Si       0.22436    0.06077    0.14465    1.000
    N1394    N        0.26336    0.05559    0.12622    1.000
    N1395    N        0.22595    0.09991    0.16250    1.000
    N1396    N        0.23266    0.12618    0.23782    1.000
    Si1397   Si       0.25494    0.13124    0.15112    1.000
    N1398    N        0.27248    0.13660    0.19101    1.000
    Si1399   Si       0.27148    0.14640    0.23161    1.000
    N1400    N        0.24085    0.16115    0.12410    1.000
    N1401    N        0.24249    0.22573    0.15664    1.000
    Si1402   Si       0.22832    0.24689    0.19214    1.000
    Si1403   Si       0.28175    0.22587    0.24210    1.000
    Si1404   Si       0.26206    0.19879    0.13209    1.000
    N1405    N        0.26079    0.25756    0.21808    1.000
    N1406    N        0.25014    0.03349    0.34341    1.000
    Si1407   Si       0.25794    0.04444    0.30269    1.000
    N1408    N        0.25050    0.08516    0.29657    1.000
    Si1409   Si       0.24435    0.11413    0.32895    1.000
    N1410    N        0.23167    0.02119    0.27735    1.000
    N1411    N        0.24983    0.22016    0.27231    1.000
    Si1412   Si       0.26069    0.22468    0.31400    1.000
    N1413    N        0.23243    0.21691    0.34578    1.000
    N1414    N        0.25280    0.09918    0.36881    1.000
    Si1415   Si       0.25996    0.03311    0.45689    1.000
    Si1416   Si       0.25616    0.08764    0.41118    1.000
    N1417    N        0.26724    0.04642    0.41553    1.000
    N1418    N        0.22981    0.10815    0.43977    1.000
    N1419    N        0.28172    0.05675    0.48379    1.000
    Si1420   Si       0.27862    0.03476    0.37575    1.000
    Si1421   Si       0.27806    0.13564    0.37759    1.000
    N1422    N        0.26704    0.23116    0.44248    1.000
    Si1423   Si       0.24494    0.17805    0.48673    1.000
    N1424    N        0.24379    0.16138    0.39228    1.000
    N1425    N        0.27017    0.15728    0.45977    1.000
    Si1426   Si       0.23258    0.24951    0.42445    1.000
    Si1427   Si       0.23522    0.15042    0.43366    1.000
    Si1428   Si       0.24769    0.03493    0.58797    1.000
    N1429    N        0.25498    0.02866    0.54489    1.000
    Si1430   Si       0.26260    0.06614    0.52224    1.000
    N1431    N        0.26782    0.06679    0.61077    1.000
    Si1432   Si       0.27632    0.09994    0.58312    1.000
    N1433    N        0.23483    0.10883    0.56940    1.000
    N1434    N        0.22578    0.08821    0.50814    1.000
    N1435    N        0.26300    0.20654    0.51556    1.000
    Si1436   Si       0.26214    0.17671    0.54768    1.000
    N1437    N        0.24820    0.17902    0.58959    1.000
    Si1438   Si       0.25188    0.24625    0.51510    1.000
    N1439    N        0.23642    0.15337    0.52082    1.000
    Si1440   Si       0.24529    0.25864    0.59920    1.000
    Si1441   Si       0.24297    0.09359    0.71790    1.000
    Si1442   Si       0.24787    0.02247    0.71506    1.000
    Si1443   Si       0.26896    0.07294    0.65437    1.000
    N1444    N        0.26821    0.03299    0.67731    1.000
    N1445    N        0.23994    0.09809    0.67547    1.000
    N1446    N        0.22177    0.05552    0.72425    1.000
    Si1447   Si       0.23102    0.21371    0.74430    1.000
    N1448    N        0.26230    0.17784    0.66527    1.000
    N1449    N        0.26396    0.23473    0.62969    1.000
    N1450    N        0.27139    0.20045    0.73406    1.000
    Si1451   Si       0.27113    0.19254    0.62500    1.000
    Si1452   Si       0.26807    0.09020    0.84149    1.000
    N1453    N        0.25944    0.09015    0.79809    1.000
    N1454    N        0.22534    0.09749    0.85799    1.000
    N1455    N        0.27433    0.01541    0.74774    1.000
    Si1456   Si       0.23366    0.19810    0.81458    1.000
    N1457    N        0.27182    0.21288    0.80384    1.000
    N1458    N        0.23311    0.17577    0.85138    1.000
    N1459    N        0.27886    0.15101    0.78270    1.000
    N1460    N        0.22801    0.25329    0.75980    1.000
    N1461    N        0.23704    0.05253    0.90507    1.000
    N1462    N        0.25143    0.03466    0.97147    1.000
    N1463    N        0.23594    0.10351    0.95044    1.000
    Si1464   Si       0.27686    0.03997    0.89399    1.000
    Si1465   Si       0.22842    0.06312    0.94561    1.000
    N1466    N        0.27736    0.22896    0.87197    1.000
    Si1467   Si       0.23412    0.13203    0.98226    1.000
    N1468    N        0.23016    0.25651    0.96648    1.000
    N1469    N        0.22480    0.20982    0.91758    1.000
    N1470    N        0.23252    0.17717    0.98541    1.000
    Si1471   Si       0.25117    0.19518    0.88525    1.000
    Si1472   Si       0.22416    0.21203    0.96131    1.000
    Si1473   Si       0.25571    0.31582    0.03528    1.000
    Si1474   Si       0.24538    0.36093    0.09557    1.000
    N1475    N        0.26651    0.35006    0.05949    1.000
    N1476    N        0.22913    0.26927    0.09844    1.000
    N1477    N        0.27618    0.28016    0.05133    1.000
    N1478    N        0.23849    0.45159    0.04923    1.000
    N1479    N        0.27152    0.49867    0.08744    1.000
    N1480    N        0.22854    0.40085    0.09396    1.000
    Si1481   Si       0.27904    0.45646    0.07258    1.000
    N1482    N        0.27771    0.44383    0.11759    1.000
    Si1483   Si       0.24292    0.48978    0.12138    1.000
    Si1484   Si       0.22225    0.45797    0.01021    1.000
    N1485    N        0.23598    0.36729    0.21236    1.000
    Si1486   Si       0.24370    0.26666    0.13845    1.000
    N1487    N        0.26849    0.37290    0.13250    1.000
    N1488    N        0.28371    0.28036    0.14484    1.000
    N1489    N        0.22526    0.42423    0.16540    1.000
    Si1490   Si       0.22688    0.43191    0.20928    1.000
    Si1491   Si       0.27267    0.38630    0.22033    1.000
    Si1492   Si       0.25045    0.41262    0.13074    1.000
    N1493    N        0.26924    0.42931    0.21405    1.000
    Si1494   Si       0.24218    0.29713    0.29094    1.000
    N1495    N        0.25638    0.26805    0.32048    1.000
    Si1496   Si       0.25632    0.34222    0.34787    1.000
    N1497    N        0.27242    0.31162    0.26643    1.000
    N1498    N        0.22789    0.32823    0.31913    1.000
    Si1499   Si       0.23198    0.26147    0.35372    1.000
    N1500    N        0.23891    0.37300    0.37176    1.000
    N1501    N        0.26360    0.49210    0.33803    1.000
    Si1502   Si       0.24073    0.40704    0.34297    1.000
    N1503    N        0.27608    0.42404    0.32741    1.000
    Si1504   Si       0.22282    0.48013    0.33343    1.000
    N1505    N        0.25644    0.33827    0.43125    1.000
    N1506    N        0.24414    0.27626    0.39174    1.000
    Si1507   Si       0.27377    0.30445    0.40807    1.000
    Si1508   Si       0.22725    0.36971    0.41202    1.000
    N1509    N        0.22479    0.33923    0.49524    1.000
    N1510    N        0.24069    0.44373    0.47800    1.000
    N1511    N        0.24484    0.47565    0.42237    1.000
    Si1512   Si       0.24510    0.43375    0.43632    1.000
    Si1513   Si       0.26994    0.47398    0.49326    1.000
    N1514    N        0.27526    0.40456    0.42483    1.000
    Si1515   Si       0.26004    0.36193    0.51637    1.000
    N1516    N        0.25113    0.36436    0.59435    1.000
    N1517    N        0.27007    0.33216    0.54611    1.000
    Si1518   Si       0.24136    0.32649    0.57753    1.000
    N1519    N        0.25377    0.30114    0.60974    1.000
    N1520    N        0.26185    0.25664    0.55808    1.000
    Si1521   Si       0.27666    0.46751    0.57463    1.000
    N1522    N        0.23346    0.39565    0.52689    1.000
    N1523    N        0.25749    0.43181    0.58979    1.000
    N1524    N        0.25312    0.50058    0.58231    1.000
    Si1525   Si       0.22449    0.41792    0.56345    1.000
    Si1526   Si       0.22727    0.50727    0.61579    1.000
    Si1527   Si       0.22179    0.34675    0.74156    1.000
    Si1528   Si       0.23888    0.36483    0.67198    1.000
    N1529    N        0.24558    0.31070    0.73067    1.000
    N1530    N        0.27007    0.33606    0.66714    1.000
    N1531    N        0.26153    0.26426    0.69368    1.000
    Si1532   Si       0.22784    0.27271    0.72075    1.000
    N1533    N        0.23899    0.37451    0.71376    1.000
    Si1534   Si       0.27750    0.30635    0.70264    1.000
    Si1535   Si       0.25064    0.51010    0.73060    1.000
    N1536    N        0.26328    0.48013    0.69917    1.000
    N1537    N        0.24736    0.40211    0.64860    1.000
    Si1538   Si       0.27929    0.41775    0.62557    1.000
    Si1539   Si       0.22391    0.47424    0.68202    1.000
    Si1540   Si       0.24903    0.41519    0.72387    1.000
    N1541    N        0.26285    0.27805    0.81599    1.000
    N1542    N        0.24396    0.33749    0.84417    1.000
    Si1543   Si       0.27867    0.31374    0.83427    1.000
    N1544    N        0.22113    0.35732    0.78367    1.000
    Si1545   Si       0.22288    0.26918    0.80038    1.000
    Si1546   Si       0.24660    0.38544    0.84310    1.000
    N1547    N        0.24734    0.41970    0.76782    1.000
    Si1548   Si       0.25800    0.46926    0.86003    1.000
    N1549    N        0.26974    0.46537    0.81898    1.000
    Si1550   Si       0.27714    0.42997    0.79585    1.000
    Si1551   Si       0.27741    0.50219    0.79589    1.000
    N1552    N        0.28095    0.39169    0.82123    1.000
    N1553    N        0.24195    0.50783    0.77238    1.000
    N1554    N        0.23056    0.37262    0.96546    1.000
    Si1555   Si       0.26501    0.28052    0.96858    1.000
    Si1556   Si       0.23890    0.33890    0.88958    1.000
    N1557    N        0.26231    0.33396    0.92605    1.000
    Si1558   Si       0.27199    0.35319    0.96749    1.000
    N1559    N        0.26220    0.31663    0.99175    1.000
    N1560    N        0.25343    0.44725    0.97864    1.000
    N1561    N        0.23881    0.49725    0.92549    1.000
    N1562    N        0.27565    0.44069    0.88672    1.000
    N1563    N        0.24157    0.38320    0.88617    1.000
    Si1564   Si       0.26296    0.48612    0.96053    1.000
    Si1565   Si       0.25506    0.41270    0.91221    1.000
    Si1566   Si       0.22961    0.53003    0.00699    1.000
    N1567    N        0.27552    0.56760    0.11275    1.000
    N1568    N        0.26792    0.50714    0.00054    1.000
    N1569    N        0.25665    0.63122    0.08351    1.000
    Si1570   Si       0.25340    0.64730    0.04223    1.000
    N1571    N        0.25179    0.68965    0.03446    1.000
    N1572    N        0.24696    0.69530    0.10279    1.000
    Si1573   Si       0.23018    0.71044    0.06443    1.000
    N1574    N        0.22949    0.75176    0.05488    1.000
    Si1575   Si       0.23528    0.65563    0.11429    1.000
    Si1576   Si       0.24184    0.70258    0.99218    1.000
    Si1577   Si       0.24955    0.54979    0.14903    1.000
    Si1578   Si       0.23787    0.60745    0.18017    1.000
    N1579    N        0.27003    0.57576    0.17921    1.000
    N1580    N        0.26576    0.51042    0.15589    1.000
    N1581    N        0.25162    0.62951    0.14392    1.000
    N1582    N        0.25643    0.62857    0.21664    1.000
    N1583    N        0.27469    0.69026    0.24657    1.000
    Si1584   Si       0.26505    0.72988    0.12025    1.000
    N1585    N        0.24541    0.55829    0.33604    1.000
    N1586    N        0.23788    0.60059    0.28296    1.000
    Si1587   Si       0.26184    0.59543    0.31871    1.000
    N1588    N        0.24006    0.53090    0.25298    1.000
    N1589    N        0.27832    0.61030    0.35532    1.000
    Si1590   Si       0.22717    0.62394    0.24672    1.000
    Si1591   Si       0.28178    0.52337    0.24635    1.000
    N1592    N        0.24148    0.70857    0.30585    1.000
    Si1593   Si       0.23703    0.69642    0.26459    1.000
    Si1594   Si       0.27210    0.69384    0.33177    1.000
    N1595    N        0.27070    0.56466    0.42031    1.000
    N1596    N        0.25277    0.58745    0.48513    1.000
    Si1597   Si       0.25259    0.59499    0.44261    1.000
    N1598    N        0.27492    0.63104    0.42384    1.000
    N1599    N        0.24658    0.51166    0.48325    1.000
    Si1600   Si       0.25790    0.71272    0.39811    1.000
    N1601    N        0.24510    0.69741    0.43701    1.000
    N1602    N        0.25914    0.67975    0.37011    1.000
    N1603    N        0.22920    0.74147    0.38275    1.000
    Si1604   Si       0.26511    0.66312    0.45183    1.000
    N1605    N        0.24451    0.65214    0.48650    1.000
    Si1606   Si       0.25496    0.63568    0.38249    1.000
    Si1607   Si       0.23845    0.61592    0.51324    1.000
    N1608    N        0.23187    0.55249    0.54034    1.000
    Si1609   Si       0.26809    0.53725    0.56379    1.000
    N1610    N        0.25772    0.62458    0.55093    1.000
    Si1611   Si       0.25558    0.54892    0.50372    1.000
    N1612    N        0.23647    0.59334    0.61732    1.000
    Si1613   Si       0.24408    0.62964    0.59230    1.000
    N1614    N        0.25574    0.71512    0.50684    1.000
    N1615    N        0.22932    0.71711    0.59581    1.000
    N1616    N        0.27050    0.66085    0.60667    1.000
    Si1617   Si       0.26825    0.70597    0.61317    1.000
    N1618    N        0.24389    0.53516    0.64385    1.000
    N1619    N        0.24017    0.57921    0.69674    1.000
    Si1620   Si       0.26969    0.56738    0.63102    1.000
    N1621    N        0.26224    0.70211    0.65735    1.000
    N1622    N        0.23250    0.64830    0.69566    1.000
    Si1623   Si       0.26869    0.66772    0.68181    1.000
    Si1624   Si       0.26078    0.74296    0.67205    1.000
    Si1625   Si       0.26054    0.56788    0.83205    1.000
    N1626    N        0.27436    0.60881    0.84024    1.000
    N1627    N        0.22721    0.57182    0.80387    1.000
    N1628    N        0.24256    0.55142    0.86962    1.000
    Si1629   Si       0.24597    0.63135    0.86267    1.000
    N1630    N        0.24054    0.66952    0.84256    1.000
    Si1631   Si       0.23937    0.67047    0.79790    1.000
    N1632    N        0.23985    0.71426    0.79969    1.000
    Si1633   Si       0.26820    0.74131    0.78163    1.000
    Si1634   Si       0.22942    0.71253    0.84186    1.000
    N1635    N        0.25676    0.73756    0.86271    1.000
    N1636    N        0.27578    0.65408    0.78308    1.000
    Si1637   Si       0.26063    0.52470    0.89995    1.000
    Si1638   Si       0.24218    0.57285    0.94444    1.000
    N1639    N        0.24859    0.60264    0.97634    1.000
    N1640    N        0.27846    0.55381    0.92775    1.000
    N1641    N        0.22503    0.70017    0.90570    1.000
    Si1642   Si       0.23795    0.66463    0.92803    1.000
    Si1643   Si       0.27724    0.63589    0.97890    1.000
    N1644    N        0.26170    0.63761    0.90447    1.000
    N1645    N        0.25798    0.74261    0.98569    1.000
    N1646    N        0.25457    0.67220    0.96676    1.000
    Si1647   Si       0.25030    0.73528    0.90452    1.000
    Si1648   Si       0.28382    0.75803    0.95170    1.000
    Si1649   Si       0.24382    0.84670    0.01719    1.000
    Si1650   Si       0.25487    0.84775    0.09443    1.000
    N1651    N        0.25834    0.80550    0.08746    1.000
    Si1652   Si       0.25090    0.76907    0.02010    1.000
    N1653    N        0.24330    0.87023    0.05633    1.000
    N1654    N        0.22936    0.80443    0.00999    1.000
    N1655    N        0.28211    0.85088    0.99865    1.000
    Si1656   Si       0.22292    0.77932    0.09094    1.000
    Si1657   Si       0.26550    0.97068    0.04671    1.000
    N1658    N        0.24090    0.92027    0.10218    1.000
    Si1659   Si       0.26354    0.95211    0.11836    1.000
    N1660    N        0.28126    0.97369    0.08686    1.000
    N1661    N        0.24388    0.76978    0.19437    1.000
    N1662    N        0.25179    0.84582    0.19324    1.000
    Si1663   Si       0.22704    0.81009    0.19593    1.000
    Si1664   Si       0.22960    0.88007    0.20519    1.000
    N1665    N        0.22762    0.75416    0.12603    1.000
    N1666    N        0.23278    0.90934    0.17303    1.000
    Si1667   Si       0.24937    0.94752    0.18995    1.000
    N1668    N        0.22815    0.97481    0.21793    1.000
    N1669    N        0.24029    0.96762    0.15167    1.000
    N1670    N        0.23489    0.89637    0.24318    1.000
    N1671    N        0.25993    0.80872    0.34886    1.000
    N1672    N        0.26916    0.82342    0.27605    1.000
    Si1673   Si       0.23658    0.79557    0.26977    1.000
    N1674    N        0.26575    0.87483    0.32799    1.000
    N1675    N        0.26882    0.76390    0.26797    1.000
    Si1676   Si       0.27785    0.83484    0.31747    1.000
    Si1677   Si       0.22519    0.88404    0.33729    1.000
    N1678    N        0.25370    0.95679    0.27534    1.000
    Si1679   Si       0.23608    0.95019    0.31354    1.000
    Si1680   Si       0.26925    0.92348    0.25316    1.000
    Si1681   Si       0.25113    0.99257    0.25139    1.000
    N1682    N        0.27631    0.94332    0.33617    1.000
    N1683    N        0.23898    0.78603    0.48638    1.000
    N1684    N        0.26477    0.78816    0.41633    1.000
    Si1685   Si       0.27326    0.79572    0.45806    1.000
    N1686    N        0.25401    0.87910    0.42866    1.000
    N1687    N        0.22637    0.87014    0.48714    1.000
    Si1688   Si       0.22358    0.77821    0.40562    1.000
    Si1689   Si       0.24896    0.91425    0.40530    1.000
    N1690    N        0.27615    0.93600    0.46710    1.000
    N1691    N        0.25235    0.99464    0.47661    1.000
    N1692    N        0.23013    0.95239    0.42062    1.000
    Si1693   Si       0.23890    0.95622    0.46151    1.000
    N1694    N        0.25292    0.83567    0.54743    1.000
    Si1695   Si       0.25334    0.86931    0.52016    1.000
    N1696    N        0.27846    0.76873    0.54522    1.000
    N1697    N        0.22530    0.79652    0.59475    1.000
    Si1698   Si       0.26583    0.75724    0.50519    1.000
    Si1699   Si       0.24423    0.99327    0.51969    1.000
    Si1700   Si       0.25146    0.92845    0.56434    1.000
    N1701    N        0.26245    0.95752    0.53415    1.000
    N1702    N        0.24600    0.00002    0.61159    1.000
    N1703    N        0.22812    0.89822    0.54301    1.000
    Si1704   Si       0.26218    0.80087    0.61968    1.000
    N1705    N        0.24604    0.82514    0.65333    1.000
    Si1706   Si       0.23573    0.86661    0.64235    1.000
    N1707    N        0.26958    0.76107    0.63143    1.000
    N1708    N        0.28686    0.83529    0.71742    1.000
    Si1709   Si       0.28236    0.84221    0.67359    1.000
    Si1710   Si       0.27197    0.00217    0.64500    1.000
    N1711    N        0.22754    0.92557    0.70629    1.000
    Si1712   Si       0.22612    0.96177    0.68303    1.000
    N1713    N        0.26402    0.96224    0.66123    1.000
    Si1714   Si       0.26188    0.92585    0.72994    1.000
    N1715    N        0.27178    0.88375    0.65700    1.000
    Si1716   Si       0.24243    0.79661    0.79794    1.000
    N1717    N        0.23317    0.83274    0.77795    1.000
    N1718    N        0.24652    0.76969    0.75879    1.000
    Si1719   Si       0.26810    0.84784    0.75584    1.000
    N1720    N        0.26479    0.88912    0.75146    1.000
    Si1721   Si       0.25756    0.91043    0.78908    1.000
    Si1722   Si       0.25341    0.99104    0.77763    1.000
    N1723    N        0.26036    0.94967    0.76776    1.000
    Si1724   Si       0.24349    0.99777    0.84963    1.000
    N1725    N        0.27226    0.00069    0.81606    1.000
    Si1726   Si       0.25277    0.80988    0.90238    1.000
    N1727    N        0.25240    0.77410    0.92361    1.000
    N1728    N        0.26985    0.84517    0.92373    1.000
    Si1729   Si       0.23647    0.87051    0.90253    1.000
    N1730    N        0.26787    0.90146    0.96172    1.000
    N1731    N        0.27298    0.99759    0.88321    1.000
    N1732    N        0.24750    0.89703    0.86931    1.000
    Si1733   Si       0.26724    0.94166    0.97823    1.000
    N1734    N        0.30902    0.06653    0.01955    1.000
    Si1735   Si       0.31078    0.02404    0.02303    1.000
    Si1736   Si       0.29134    0.08287    0.10629    1.000
    N1737    N        0.33669    0.12865    0.02196    1.000
    N1738    N        0.28512    0.10431    0.07090    1.000
    N1739    N        0.33417    0.00972    0.05600    1.000
    N1740    N        0.30161    0.18603    0.02200    1.000
    N1741    N        0.32163    0.16930    0.08164    1.000
    Si1742   Si       0.28494    0.18261    0.06548    1.000
    N1743    N        0.33400    0.24451    0.04820    1.000
    Si1744   Si       0.30502    0.14943    0.99730    1.000
    Si1745   Si       0.33427    0.18313    0.12150    1.000
    Si1746   Si       0.33748    0.21070    0.02101    1.000
    N1747    N        0.32464    0.05746    0.11748    1.000
    Si1748   Si       0.30495    0.11116    0.17823    1.000
    Si1749   Si       0.29920    0.04430    0.15029    1.000
    Si1750   Si       0.31089    0.02967    0.20791    1.000
    N1751    N        0.29020    0.11041    0.13794    1.000
    N1752    N        0.30763    0.06945    0.18735    1.000
    N1753    N        0.28638    0.01232    0.23896    1.000
    Si1754   Si       0.31297    0.17936    0.18870    1.000
    N1755    N        0.29940    0.18464    0.14820    1.000
    N1756    N        0.28923    0.18744    0.22559    1.000
    N1757    N        0.33590    0.13989    0.19300    1.000
    N1758    N        0.30152    0.03690    0.29789    1.000
    Si1759   Si       0.32707    0.05652    0.32848    1.000
    Si1760   Si       0.31240    0.12588    0.29934    1.000
    Si1761   Si       0.31956    0.01370    0.26607    1.000
    N1762    N        0.30650    0.12724    0.25486    1.000
    N1763    N        0.31597    0.05810    0.37017    1.000
    N1764    N        0.29948    0.21521    0.32683    1.000
    Si1765   Si       0.30779    0.17448    0.33586    1.000
    N1766    N        0.30993    0.25498    0.25712    1.000
    N1767    N        0.33736    0.16171    0.30431    1.000
    Si1768   Si       0.33761    0.23181    0.33351    1.000
    N1769    N        0.28107    0.13719    0.32898    1.000
    N1770    N        0.29536    0.11202    0.41452    1.000
    Si1771   Si       0.33128    0.08202    0.40435    1.000
    N1772    N        0.31907    0.11737    0.48143    1.000
    Si1773   Si       0.32135    0.07391    0.47915    1.000
    N1774    N        0.33738    0.06263    0.44179    1.000
    Si1775   Si       0.30563    0.24468    0.44463    1.000
    Si1776   Si       0.30617    0.13969    0.44747    1.000
    N1777    N        0.33390    0.22999    0.41308    1.000
    N1778    N        0.33235    0.24078    0.47925    1.000
    N1779    N        0.31052    0.16455    0.37765    1.000
    N1780    N        0.30873    0.12010    0.60349    1.000
    N1781    N        0.29310    0.08278    0.54729    1.000
    Si1782   Si       0.33694    0.07647    0.55193    1.000
    Si1783   Si       0.32644    0.13989    0.52052    1.000
    N1784    N        0.29997    0.15728    0.54909    1.000
    Si1785   Si       0.32249    0.15768    0.58521    1.000
    N1786    N        0.31186    0.19109    0.61032    1.000
    N1787    N        0.30939    0.08377    0.66370    1.000
    Si1788   Si       0.31679    0.11234    0.70264    1.000
    Si1789   Si       0.31966    0.04189    0.67318    1.000
    N1790    N        0.33176    0.02919    0.71380    1.000
    Si1791   Si       0.33366    0.09337    0.62530    1.000
    N1792    N        0.31456    0.00687    0.64508    1.000
    N1793    N        0.28533    0.09933    0.72953    1.000
    N1794    N        0.31485    0.21863    0.67814    1.000
    N1795    N        0.32042    0.15768    0.71063    1.000
    Si1796   Si       0.29131    0.18879    0.69746    1.000
    Si1797   Si       0.28864    0.24937    0.66443    1.000
    N1798    N        0.30179    0.11826    0.84421    1.000
    Si1799   Si       0.30668    0.02607    0.82537    1.000
    N1800    N        0.33140    0.11023    0.77849    1.000
    N1801    N        0.33096    0.03664    0.78987    1.000
    Si1802   Si       0.28988    0.11163    0.77059    1.000
    Si1803   Si       0.31855    0.01676    0.75388    1.000
    N1804    N        0.28657    0.05288    0.85402    1.000
    Si1805   Si       0.34027    0.10974    0.82200    1.000
    N1806    N        0.33186    0.19512    0.77282    1.000
    Si1807   Si       0.29025    0.18932    0.77157    1.000
    N1808    N        0.32788    0.25162    0.82627    1.000
    Si1809   Si       0.28614    0.24283    0.83171    1.000
    Si1810   Si       0.28948    0.01626    0.95999    1.000
    N1811    N        0.30070    0.04470    0.92967    1.000
    N1812    N        0.32671    0.01394    0.98423    1.000
    Si1813   Si       0.33468    0.06730    0.93129    1.000
    N1814    N        0.33604    0.10344    0.90444    1.000
    N1815    N        0.30945    0.22193    0.92881    1.000
    Si1816   Si       0.30240    0.25494    0.89829    1.000
    N1817    N        0.31939    0.15275    0.95672    1.000
    Si1818   Si       0.32309    0.25300    0.95926    1.000
    Si1819   Si       0.31201    0.18070    0.92279    1.000
    Si1820   Si       0.31168    0.13393    0.88348    1.000
    N1821    N        0.28131    0.16333    0.90000    1.000
    N1822    N        0.29601    0.25919    0.99162    1.000
    Si1823   Si       0.31142    0.27497    0.02811    1.000
    Si1824   Si       0.29821    0.37630    0.04446    1.000
    N1825    N        0.33577    0.36010    0.06107    1.000
    N1826    N        0.28727    0.37948    0.00211    1.000
    N1827    N        0.31795    0.47577    0.04981    1.000
    N1828    N        0.29818    0.41730    0.05651    1.000
    Si1829   Si       0.33159    0.43493    0.03515    1.000
    Si1830   Si       0.31800    0.29704    0.16297    1.000
    N1831    N        0.31265    0.30327    0.20492    1.000
    N1832    N        0.30654    0.36984    0.19715    1.000
    Si1833   Si       0.30847    0.36972    0.15289    1.000
    Si1834   Si       0.28799    0.28734    0.23486    1.000
    N1835    N        0.33133    0.33355    0.14383    1.000
    Si1836   Si       0.33225    0.34076    0.21405    1.000
    N1837    N        0.32863    0.47447    0.16353    1.000
    Si1838   Si       0.32057    0.44586    0.13220    1.000
    N1839    N        0.29163    0.49393    0.21793    1.000
    N1840    N        0.32988    0.40770    0.14806    1.000
    Si1841   Si       0.30287    0.45233    0.22715    1.000
    Si1842   Si       0.30240    0.50710    0.17628    1.000
    Si1843   Si       0.31612    0.35317    0.35530    1.000
    Si1844   Si       0.29332    0.34712    0.27792    1.000
    N1845    N        0.28968    0.35532    0.31971    1.000
    N1846    N        0.33009    0.33880    0.25772    1.000
    Si1847   Si       0.29115    0.45967    0.34588    1.000
    Si1848   Si       0.30130    0.41593    0.29253    1.000
    N1849    N        0.30640    0.45285    0.27015    1.000
    N1850    N        0.32961    0.47106    0.33104    1.000
    Si1851   Si       0.32751    0.48747    0.28981    1.000
    N1852    N        0.28198    0.38756    0.26337    1.000
    N1853    N        0.28869    0.32549    0.37438    1.000
    N1854    N        0.30381    0.28761    0.43361    1.000
    N1855    N        0.32963    0.35372    0.43516    1.000
    Si1856   Si       0.28852    0.36635    0.44243    1.000
    N1857    N        0.29053    0.37461    0.48500    1.000
    Si1858   Si       0.33841    0.31209    0.43943    1.000
    N1859    N        0.29840    0.46964    0.46159    1.000
    Si1860   Si       0.32864    0.50021    0.37012    1.000
    Si1861   Si       0.30865    0.42144    0.40068    1.000
    N1862    N        0.30122    0.46244    0.38725    1.000
    N1863    N        0.32504    0.38816    0.37875    1.000
    Si1864   Si       0.28742    0.48552    0.42363    1.000
    Si1865   Si       0.33723    0.45145    0.46411    1.000
    N1866    N        0.31656    0.33267    0.59995    1.000
    N1867    N        0.32666    0.28081    0.54159    1.000
    Si1868   Si       0.29330    0.36419    0.57946    1.000
    Si1869   Si       0.32236    0.27612    0.49795    1.000
    Si1870   Si       0.28480    0.29245    0.54528    1.000
    N1871    N        0.30609    0.38577    0.54547    1.000
    N1872    N        0.27816    0.27776    0.50317    1.000
    Si1873   Si       0.32222    0.39048    0.50730    1.000
    N1874    N        0.31750    0.46586    0.58784    1.000
    N1875    N        0.31077    0.39709    0.60752    1.000
    Si1876   Si       0.33046    0.45635    0.54158    1.000
    N1877    N        0.28750    0.46937    0.53175    1.000
    N1878    N        0.33762    0.43186    0.50352    1.000
    N1879    N        0.30987    0.28418    0.65184    1.000
    N1880    N        0.32044    0.31151    0.70618    1.000
    Si1881   Si       0.28831    0.31716    0.63025    1.000
    Si1882   Si       0.33618    0.46103    0.62727    1.000
    Si1883   Si       0.32056    0.40824    0.74128    1.000
    N1884    N        0.33430    0.48246    0.70690    1.000
    N1885    N        0.30096    0.44718    0.64987    1.000
    N1886    N        0.28971    0.42052    0.71270    1.000
    Si1887   Si       0.29947    0.45879    0.69163    1.000
    N1888    N        0.30627    0.33169    0.80545    1.000
    N1889    N        0.31971    0.36489    0.75147    1.000
    Si1890   Si       0.31409    0.37577    0.79592    1.000
    N1891    N        0.31769    0.42345    0.78098    1.000
    N1892    N        0.30868    0.48726    0.76751    1.000
    N1893    N        0.33489    0.48703    0.82781    1.000
    N1894    N        0.32973    0.34804    0.89652    1.000
    N1895    N        0.31719    0.34113    0.95908    1.000
    Si1896   Si       0.30046    0.31873    0.91329    1.000
    N1897    N        0.29549    0.28019    0.93523    1.000
    Si1898   Si       0.32586    0.37583    0.93032    1.000
    N1899    N        0.29044    0.29648    0.87331    1.000
    N1900    N        0.28642    0.49956    0.87383    1.000
    Si1901   Si       0.28549    0.41732    0.97871    1.000
    N1902    N        0.31881    0.43956    0.99331    1.000
    Si1903   Si       0.30690    0.46939    0.89973    1.000
    N1904    N        0.30095    0.47896    0.94131    1.000
    N1905    N        0.28809    0.39984    0.93863    1.000
    Si1906   Si       0.33202    0.47471    0.96997    1.000
    N1907    N        0.30427    0.54392    0.04781    1.000
    Si1908   Si       0.29507    0.53499    0.09026    1.000
    N1909    N        0.33429    0.52348    0.10396    1.000
    Si1910   Si       0.32987    0.57766    0.04148    1.000
    N1911    N        0.33354    0.61160    0.06493    1.000
    Si1912   Si       0.30383    0.50880    0.02447    1.000
    Si1913   Si       0.27987    0.60988    0.11611    1.000
    N1914    N        0.28823    0.63635    0.02088    1.000
    N1915    N        0.32956    0.68671    0.05254    1.000
    Si1916   Si       0.32840    0.64490    0.03597    1.000
    Si1917   Si       0.32810    0.71562    0.08580    1.000
    N1918    N        0.29250    0.74079    0.08855    1.000
    Si1919   Si       0.31024    0.57337    0.19628    1.000
    N1920    N        0.31979    0.62119    0.13159    1.000
    N1921    N        0.32695    0.54450    0.16775    1.000
    N1922    N        0.30495    0.55728    0.23708    1.000
    N1923    N        0.33629    0.60743    0.19673    1.000
    Si1924   Si       0.33066    0.63892    0.16792    1.000
    N1925    N        0.28989    0.73632    0.15733    1.000
    N1926    N        0.30688    0.67197    0.18417    1.000
    Si1927   Si       0.32267    0.70777    0.16358    1.000
    Si1928   Si       0.28827    0.65625    0.21977    1.000
    N1929    N        0.33761    0.69917    0.12285    1.000
    N1930    N        0.29884    0.57585    0.30766    1.000
    N1931    N        0.30935    0.53898    0.35911    1.000
    Si1932   Si       0.32593    0.55702    0.27712    1.000
    Si1933   Si       0.31536    0.58588    0.34659    1.000
    N1934    N        0.29409    0.51802    0.28761    1.000
    Si1935   Si       0.28016    0.53078    0.32526    1.000
    N1936    N        0.29654    0.73153    0.33639    1.000
    Si1937   Si       0.30874    0.68065    0.27444    1.000
    N1938    N        0.32954    0.71618    0.27829    1.000
    N1939    N        0.29617    0.66626    0.31048    1.000
    Si1940   Si       0.30236    0.74778    0.29454    1.000
    N1941    N        0.32065    0.64804    0.24937    1.000
    Si1942   Si       0.30639    0.55538    0.40006    1.000
    N1943    N        0.31584    0.51898    0.41825    1.000
    N1944    N        0.33111    0.59187    0.39151    1.000
    Si1945   Si       0.31787    0.62553    0.41718    1.000
    N1946    N        0.34025    0.61439    0.45323    1.000
    Si1947   Si       0.31933    0.73858    0.37488    1.000
    Si1948   Si       0.33723    0.74733    0.48553    1.000
    Si1949   Si       0.33282    0.63917    0.48882    1.000
    N1950    N        0.29933    0.72119    0.40824    1.000
    N1951    N        0.33513    0.66555    0.40899    1.000
    Si1952   Si       0.32483    0.69616    0.43648    1.000
    N1953    N        0.30434    0.67493    0.46807    1.000
    N1954    N        0.31969    0.61034    0.51852    1.000
    N1955    N        0.29114    0.54502    0.52743    1.000
    Si1956   Si       0.32656    0.56710    0.52199    1.000
    N1957    N        0.31708    0.61673    0.59129    1.000
    Si1958   Si       0.32933    0.57420    0.59200    1.000
    N1959    N        0.29111    0.55573    0.59528    1.000
    Si1960   Si       0.30081    0.63032    0.55167    1.000
    N1961    N        0.31209    0.66900    0.53496    1.000
    N1962    N        0.30459    0.71572    0.58872    1.000
    Si1963   Si       0.31070    0.74373    0.55586    1.000
    N1964    N        0.32553    0.72286    0.52000    1.000
    Si1965   Si       0.29265    0.69539    0.50740    1.000
    Si1966   Si       0.30756    0.64685    0.62107    1.000
    N1967    N        0.30663    0.60529    0.71922    1.000
    N1968    N        0.30005    0.56870    0.66309    1.000
    Si1969   Si       0.32058    0.51418    0.73471    1.000
    N1970    N        0.28463    0.53605    0.72580    1.000
    Si1971   Si       0.28297    0.57353    0.70278    1.000
    Si1972   Si       0.34329    0.57168    0.66485    1.000
    Si1973   Si       0.32276    0.64088    0.69668    1.000
    N1974    N        0.29584    0.64256    0.66179    1.000
    N1975    N        0.29547    0.75015    0.69640    1.000
    N1976    N        0.29344    0.67107    0.71760    1.000
    N1977    N        0.31706    0.59595    0.78955    1.000
    Si1978   Si       0.31759    0.52037    0.85144    1.000
    Si1979   Si       0.32705    0.55451    0.79686    1.000
    N1980    N        0.28895    0.53817    0.81687    1.000
    Si1981   Si       0.33378    0.61126    0.75234    1.000
    Si1982   Si       0.29959    0.62969    0.81066    1.000
    N1983    N        0.30301    0.71771    0.77160    1.000
    Si1984   Si       0.30299    0.67706    0.75812    1.000
    N1985    N        0.33199    0.65306    0.82840    1.000
    N1986    N        0.32416    0.73937    0.86043    1.000
    N1987    N        0.33991    0.65228    0.76193    1.000
    N1988    N        0.32694    0.59922    0.90082    1.000
    Si1989   Si       0.32136    0.56058    0.92234    1.000
    N1990    N        0.33729    0.53140    0.89317    1.000
    N1991    N        0.31205    0.63491    0.95436    1.000
    N1992    N        0.33454    0.51184    0.99229    1.000
    N1993    N        0.28910    0.72521    0.92275    1.000
    Si1994   Si       0.30439    0.63834    0.91235    1.000
    Si1995   Si       0.32554    0.71694    0.89954    1.000
    N1996    N        0.32649    0.67267    0.89663    1.000
    N1997    N        0.32664    0.79735    0.09430    1.000
    Si1998   Si       0.32431    0.85605    0.00747    1.000
    Si1999   Si       0.32636    0.78314    0.00868    1.000
    N2000    N        0.29002    0.78038    0.03244    1.000
    Si2001   Si       0.29269    0.78034    0.07431    1.000
    N2002    N        0.29403    0.85910    0.11521    1.000
    Si2003   Si       0.32544    0.97699    0.08269    1.000
    Si2004   Si       0.32661    0.93381    0.02034    1.000
    N2005    N        0.33549    0.89187    0.02839    1.000
    N2006    N        0.33802    0.94341    0.06049    1.000
    N2007    N        0.28443    0.94328    0.01734    1.000
    Si2008   Si       0.31615    0.82230    0.12690    1.000
    Si2009   Si       0.29632    0.84323    0.18893    1.000
    N2010    N        0.29751    0.80737    0.16172    1.000
    N2011    N        0.31395    0.83102    0.22609    1.000
    N2012    N        0.31113    0.76806    0.21793    1.000
    Si2013   Si       0.28445    0.77073    0.18311    1.000
    N2014    N        0.31318    0.88161    0.17525    1.000
    N2015    N        0.30340    0.00756    0.17075    1.000
    Si2016   Si       0.32030    0.97042    0.15508    1.000
    N2017    N        0.29641    0.93572    0.14158    1.000
    Si2018   Si       0.32072    0.91841    0.19856    1.000
    Si2019   Si       0.31271    0.89499    0.13480    1.000
    N2020    N        0.28242    0.93371    0.21300    1.000
    N2021    N        0.32075    0.83824    0.32485    1.000
    N2022    N        0.32587    0.78437    0.28734    1.000
    Si2023   Si       0.33013    0.86153    0.36249    1.000
    Si2024   Si       0.29993    0.79743    0.25284    1.000
    N2025    N        0.30330    0.90940    0.27912    1.000
    Si2026   Si       0.29440    0.90695    0.32092    1.000
    N2027    N        0.33043    0.90254    0.34794    1.000
    N2028    N        0.33213    0.97427    0.27405    1.000
    Si2029   Si       0.30451    0.95284    0.36853    1.000
    N2030    N        0.30132    0.99583    0.37543    1.000
    Si2031   Si       0.33995    0.93122    0.27183    1.000
    Si2032   Si       0.28451    0.80577    0.38240    1.000
    N2033    N        0.32100    0.78214    0.38222    1.000
    Si2034   Si       0.29560    0.86273    0.43148    1.000
    N2035    N        0.29937    0.84613    0.39096    1.000
    N2036    N        0.29421    0.83372    0.46443    1.000
    N2037    N        0.29856    0.76348    0.47735    1.000
    N2038    N        0.32683    0.89121    0.44462    1.000
    Si2039   Si       0.30685    0.93015    0.43949    1.000
    N2040    N        0.28870    0.92951    0.40100    1.000
    N2041    N        0.34010    0.95692    0.43619    1.000
    N2042    N        0.31987    0.82626    0.53011    1.000
    N2043    N        0.29283    0.82160    0.59818    1.000
    Si2044   Si       0.28632    0.80998    0.55467    1.000
    Si2045   Si       0.31731    0.85336    0.49720    1.000
    Si2046   Si       0.32791    0.83785    0.61709    1.000
    N2047    N        0.29121    0.88637    0.51205    1.000
    N2048    N        0.33066    0.94951    0.51176    1.000
    Si2049   Si       0.32667    0.91570    0.60112    1.000
    Si2050   Si       0.29111    0.93074    0.50830    1.000
    N2051    N        0.28617    0.91251    0.58464    1.000
    N2052    N        0.32074    0.83294    0.65959    1.000
    Si2053   Si       0.32154    0.82389    0.73908    1.000
    Si2054   Si       0.33502    0.75824    0.71327    1.000
    N2055    N        0.29946    0.92811    0.70547    1.000
    N2056    N        0.32107    0.93531    0.63985    1.000
    Si2057   Si       0.28591    0.92608    0.66374    1.000
    Si2058   Si       0.34063    0.97249    0.64600    1.000
    N2059    N        0.30542    0.83560    0.77775    1.000
    Si2060   Si       0.31925    0.79708    0.79902    1.000
    Si2061   Si       0.31913    0.86285    0.80916    1.000
    N2062    N        0.33479    0.82433    0.83181    1.000
    Si2063   Si       0.28921    0.76352    0.85377    1.000
    N2064    N        0.32713    0.78179    0.74983    1.000
    N2065    N        0.28199    0.77532    0.81037    1.000
    N2066    N        0.33250    0.99921    0.84722    1.000
    N2067    N        0.28660    0.89119    0.81479    1.000
    Si2068   Si       0.28701    0.90110    0.85765    1.000
    Si2069   Si       0.32015    0.83040    0.87448    1.000
    N2070    N        0.31728    0.87268    0.87587    1.000
    N2071    N        0.31196    0.78761    0.96585    1.000
    N2072    N        0.33300    0.85543    0.96226    1.000
    Si2073   Si       0.28939    0.86647    0.95675    1.000
    N2074    N        0.28529    0.80230    0.87178    1.000
    Si2075   Si       0.34192    0.81368    0.94747    1.000
    Si2076   Si       0.33937    0.90815    0.88982    1.000
    N2077    N        0.28776    0.97144    0.95545    1.000
    Si2078   Si       0.31158    0.97617    0.87738    1.000
    N2079    N        0.30931    0.93473    0.87053    1.000
    Si2080   Si       0.32770    0.95456    0.94822    1.000
    N2081    N        0.33802    0.98049    0.91299    1.000
    N2082    N        0.37943    0.05667    0.07613    1.000
    Si2083   Si       0.37543    0.01907    0.05800    1.000
    N2084    N        0.38920    0.01655    0.01424    1.000
    N2085    N        0.38904    0.08886    0.01587    1.000
    Si2086   Si       0.34548    0.08844    0.00796    1.000
    N2087    N        0.38479    0.12824    0.07239    1.000
    Si2088   Si       0.36825    0.06043    0.11842    1.000
    N2089    N        0.36966    0.18679    0.03544    1.000
    Si2090   Si       0.35244    0.14956    0.05527    1.000
    Si2091   Si       0.36399    0.24928    0.07957    1.000
    N2092    N        0.35438    0.22303    0.11300    1.000
    N2093    N        0.37792    0.09716    0.13827    1.000
    Si2094   Si       0.38673    0.02967    0.23229    1.000
    N2095    N        0.39120    0.02864    0.13925    1.000
    N2096    N        0.38262    0.11915    0.23816    1.000
    N2097    N        0.34519    0.03136    0.23509    1.000
    Si2098   Si       0.34335    0.13856    0.23521    1.000
    N2099    N        0.34629    0.20785    0.18347    1.000
    Si2100   Si       0.37052    0.13095    0.16575    1.000
    Si2101   Si       0.36833    0.23657    0.15272    1.000
    Si2102   Si       0.37862    0.20841    0.21376    1.000
    N2103    N        0.38040    0.24601    0.23562    1.000
    N2104    N        0.36647    0.15700    0.13272    1.000
    N2105    N        0.35702    0.17919    0.24243    1.000
    Si2106   Si       0.37429    0.10566    0.34366    1.000
    N2107    N        0.35960    0.02797    0.33262    1.000
    Si2108   Si       0.39961    0.03888    0.31405    1.000
    N2109    N        0.33925    0.09604    0.31803    1.000
    N2110    N        0.35587    0.20198    0.35867    1.000
    N2111    N        0.35980    0.22636    0.29861    1.000
    Si2112   Si       0.36623    0.18534    0.28445    1.000
    Si2113   Si       0.39816    0.20097    0.37314    1.000
    Si2114   Si       0.36584    0.02797    0.44397    1.000
    N2115    N        0.36563    0.10365    0.38657    1.000
    N2116    N        0.36313    0.01112    0.40452    1.000
    Si2117   Si       0.33896    0.18776    0.39772    1.000
    N2118    N        0.33843    0.16655    0.43640    1.000
    Si2119   Si       0.37941    0.16483    0.44715    1.000
    N2120    N        0.39166    0.17319    0.40422    1.000
    N2121    N        0.39264    0.20337    0.46576    1.000
    Si2122   Si       0.35987    0.25812    0.39405    1.000
    N2123    N        0.35517    0.11584    0.54527    1.000
    Si2124   Si       0.37081    0.01944    0.51814    1.000
    Si2125   Si       0.39709    0.11430    0.53484    1.000
    N2126    N        0.34496    0.06224    0.59532    1.000
    N2127    N        0.34805    0.05683    0.51296    1.000
    Si2128   Si       0.39999    0.00601    0.57476    1.000
    N2129    N        0.37820    0.23555    0.53101    1.000
    N2130    N        0.36200    0.17418    0.58157    1.000
    N2131    N        0.36360    0.24429    0.59979    1.000
    Si2132   Si       0.35323    0.20518    0.61162    1.000
    N2133    N        0.34530    0.17571    0.50600    1.000
    Si2134   Si       0.36199    0.21375    0.49591    1.000
    Si2135   Si       0.36640    0.03093    0.62049    1.000
    N2136    N        0.35658    0.09655    0.71134    1.000
    Si2137   Si       0.37759    0.08503    0.67580    1.000
    N2138    N        0.36630    0.11652    0.64667    1.000
    N2139    N        0.36196    0.04869    0.65817    1.000
    N2140    N        0.36901    0.21147    0.71829    1.000
    Si2141   Si       0.39466    0.15093    0.64436    1.000
    N2142    N        0.37519    0.19087    0.64782    1.000
    Si2143   Si       0.34999    0.17756    0.73831    1.000
    Si2144   Si       0.36001    0.22143    0.67834    1.000
    N2145    N        0.37972    0.14911    0.74713    1.000
    Si2146   Si       0.40086    0.22481    0.74428    1.000
    Si2147   Si       0.37106    0.05242    0.80038    1.000
    N2148    N        0.35685    0.07372    0.83583    1.000
    Si2149   Si       0.36798    0.10741    0.75288    1.000
    N2150    N        0.39354    0.08303    0.77686    1.000
    N2151    N        0.39668    0.01969    0.81123    1.000
    N2152    N        0.36901    0.13632    0.83945    1.000
    N2153    N        0.38674    0.23827    0.78532    1.000
    N2154    N        0.37144    0.20306    0.83761    1.000
    Si2155   Si       0.34898    0.21876    0.80345    1.000
    Si2156   Si       0.37231    0.17215    0.86546    1.000
    Si2157   Si       0.36535    0.08017    0.87847    1.000
    N2158    N        0.36521    0.04812    0.90739    1.000
    Si2159   Si       0.35069    0.12634    0.93989    1.000
    N2160    N        0.34546    0.08889    0.96512    1.000
    N2161    N        0.39191    0.13165    0.94625    1.000
    Si2162   Si       0.38747    0.24536    0.97510    1.000
    N2163    N        0.34950    0.22576    0.98218    1.000
    N2164    N        0.34298    0.16506    0.89546    1.000
    N2165    N        0.36259    0.29498    0.08503    1.000
    Si2166   Si       0.35764    0.32315    0.05215    1.000
    N2167    N        0.39411    0.34688    0.04729    1.000
    N2168    N        0.33967    0.30669    0.01804    1.000
    Si2169   Si       0.37385    0.38179    0.06557    1.000
    N2170    N        0.35287    0.45560    0.10407    1.000
    Si2171   Si       0.34910    0.49162    0.07975    1.000
    N2172    N        0.36925    0.41379    0.03655    1.000
    N2173    N        0.38805    0.39319    0.10560    1.000
    N2174    N        0.38702    0.49654    0.06320    1.000
    Si2175   Si       0.38914    0.43551    0.11642    1.000
    Si2176   Si       0.36517    0.31233    0.12610    1.000
    N2177    N        0.35483    0.27703    0.15166    1.000
    N2178    N        0.37770    0.33529    0.21696    1.000
    N2179    N        0.39000    0.48260    0.21465    1.000
    Si2180   Si       0.37612    0.44941    0.23968    1.000
    N2181    N        0.34104    0.43494    0.21545    1.000
    Si2182   Si       0.37103    0.48443    0.17488    1.000
    N2183    N        0.38698    0.44719    0.16093    1.000
    Si2184   Si       0.36016    0.41733    0.17851    1.000
    N2185    N        0.39453    0.38713    0.17727    1.000
    Si2186   Si       0.36345    0.29937    0.33212    1.000
    N2187    N        0.36711    0.29307    0.28769    1.000
    Si2188   Si       0.37404    0.32842    0.26034    1.000
    N2189    N        0.35512    0.34208    0.33664    1.000
    N2190    N        0.39177    0.36174    0.28362    1.000
    Si2191   Si       0.37120    0.38006    0.31850    1.000
    N2192    N        0.34518    0.26814    0.35446    1.000
    Si2193   Si       0.35306    0.25636    0.26741    1.000
    N2194    N        0.39528    0.47910    0.33150    1.000
    N2195    N        0.36915    0.46432    0.27996    1.000
    Si2196   Si       0.36531    0.44342    0.32043    1.000
    N2197    N        0.38973    0.41266    0.34148    1.000
    Si2198   Si       0.39053    0.50136    0.29314    1.000
    N2199    N        0.34176    0.40861    0.30339    1.000
    N2200    N        0.36835    0.29065    0.41930    1.000
    N2201    N        0.34842    0.30857    0.48236    1.000
    Si2202   Si       0.37813    0.33944    0.48895    1.000
    N2203    N        0.39870    0.33776    0.45013    1.000
    N2204    N        0.36649    0.49854    0.38918    1.000
    Si2205   Si       0.35356    0.38637    0.41467    1.000
    N2206    N        0.36414    0.48515    0.46059    1.000
    N2207    N        0.39616    0.38872    0.40747    1.000
    N2208    N        0.33901    0.42179    0.43284    1.000
    N2209    N        0.37862    0.30132    0.58429    1.000
    N2210    N        0.37777    0.37169    0.59649    1.000
    Si2211   Si       0.36038    0.33480    0.60437    1.000
    N2212    N        0.36327    0.37577    0.50723    1.000
    Si2213   Si       0.36066    0.26606    0.56146    1.000
    Si2214   Si       0.37806    0.41449    0.52289    1.000
    N2215    N        0.36050    0.42902    0.56074    1.000
    N2216    N        0.35249    0.49373    0.53068    1.000
    Si2217   Si       0.35211    0.40624    0.59654    1.000
    Si2218   Si       0.38200    0.48743    0.49941    1.000
    Si2219   Si       0.38212    0.27229    0.62683    1.000
    N2220    N        0.37821    0.35054    0.71272    1.000
    N2221    N        0.37006    0.32044    0.64553    1.000
    Si2222   Si       0.34656    0.33335    0.73629    1.000
    Si2223   Si       0.39643    0.34545    0.67296    1.000
    N2224    N        0.36880    0.26213    0.66735    1.000
    Si2225   Si       0.34450    0.29706    0.67271    1.000
    N2226    N        0.39746    0.48353    0.70382    1.000
    N2227    N        0.36927    0.43284    0.62622    1.000
    Si2228   Si       0.36823    0.45806    0.72426    1.000
    N2229    N        0.35121    0.49848    0.63968    1.000
    N2230    N        0.35793    0.41633    0.72007    1.000
    Si2231   Si       0.39981    0.39328    0.71394    1.000
    Si2232   Si       0.37068    0.50739    0.67739    1.000
    N2233    N        0.36188    0.30999    0.84120    1.000
    N2234    N        0.36188    0.30768    0.76639    1.000
    Si2235   Si       0.35885    0.26734    0.85145    1.000
    N2236    N        0.35552    0.37128    0.80540    1.000
    Si2237   Si       0.35013    0.32710    0.80358    1.000
    N2238    N        0.38765    0.37761    0.86143    1.000
    Si2239   Si       0.39661    0.28065    0.77373    1.000
    Si2240   Si       0.36525    0.47057    0.85441    1.000
    Si2241   Si       0.38553    0.39758    0.82117    1.000
    N2242    N        0.37589    0.46528    0.76726    1.000
    N2243    N        0.37008    0.43600    0.82837    1.000
    N2244    N        0.39576    0.50435    0.85944    1.000
    Si2245   Si       0.34044    0.46158    0.79319    1.000
    Si2246   Si       0.36723    0.34007    0.87444    1.000
    N2247    N        0.39166    0.31599    0.90204    1.000
    Si2248   Si       0.37837    0.27777    0.91780    1.000
    N2249    N        0.35951    0.28151    0.95691    1.000
    N2250    N        0.38911    0.33936    0.97077    1.000
    Si2251   Si       0.35038    0.31889    0.97562    1.000
    N2252    N        0.34521    0.26350    0.89275    1.000
    Si2253   Si       0.39691    0.37537    0.94880    1.000
    N2254    N        0.36313    0.39553    0.93314    1.000
    N2255    N        0.34518    0.45449    0.89000    1.000
    Si2256   Si       0.37153    0.43505    0.91816    1.000
    N2257    N        0.37018    0.46391    0.95307    1.000
    Si2258   Si       0.35462    0.61440    0.10455    1.000
    N2259    N        0.36802    0.56886    0.02381    1.000
    N2260    N        0.37796    0.58134    0.11850    1.000
    N2261    N        0.35696    0.63510    0.00339    1.000
    N2262    N        0.38164    0.64796    0.09992    1.000
    Si2263   Si       0.35483    0.71712    0.03078    1.000
    N2264    N        0.35841    0.74225    0.06709    1.000
    N2265    N        0.39111    0.69454    0.01946    1.000
    N2266    N        0.34529    0.74375    0.99948    1.000
    Si2267   Si       0.39634    0.65211    0.00814    1.000
    Si2268   Si       0.35551    0.54369    0.13418    1.000
    N2269    N        0.38656    0.51705    0.15167    1.000
    Si2270   Si       0.35132    0.62055    0.23729    1.000
    N2271    N        0.37583    0.75267    0.24529    1.000
    N2272    N        0.35751    0.73039    0.18043    1.000
    Si2273   Si       0.39079    0.73945    0.15559    1.000
    N2274    N        0.38717    0.64603    0.23098    1.000
    N2275    N        0.37042    0.65777    0.16469    1.000
    Si2276   Si       0.37567    0.67813    0.12756    1.000
    Si2277   Si       0.38207    0.59231    0.30032    1.000
    N2278    N        0.35736    0.58645    0.33509    1.000
    N2279    N        0.35554    0.58818    0.26737    1.000
    N2280    N        0.35517    0.52611    0.28827    1.000
    Si2281   Si       0.37162    0.72930    0.27902    1.000
    Si2282   Si       0.39014    0.74546    0.35756    1.000
    N2283    N        0.39096    0.74345    0.31504    1.000
    N2284    N        0.38131    0.64169    0.36523    1.000
    N2285    N        0.39815    0.63389    0.29855    1.000
    Si2286   Si       0.37103    0.60027    0.37306    1.000
    Si2287   Si       0.35779    0.51335    0.42892    1.000
    N2288    N        0.37767    0.55286    0.42906    1.000
    Si2289   Si       0.37093    0.58281    0.46212    1.000
    N2290    N        0.35331    0.55662    0.49140    1.000
    Si2291   Si       0.40126    0.71227    0.44856    1.000
    N2292    N        0.35847    0.71895    0.37251    1.000
    N2293    N        0.35639    0.71964    0.45623    1.000
    Si2294   Si       0.36960    0.67739    0.38491    1.000
    Si2295   Si       0.37813    0.52503    0.54704    1.000
    N2296    N        0.35077    0.55716    0.55729    1.000
    N2297    N        0.39465    0.51046    0.58547    1.000
    N2298    N        0.37571    0.70328    0.56551    1.000
    N2299    N        0.36828    0.65872    0.50448    1.000
    Si2300   Si       0.35139    0.68880    0.53395    1.000
    Si2301   Si       0.34722    0.70552    0.59983    1.000
    Si2302   Si       0.37625    0.52788    0.61874    1.000
    N2303    N        0.35596    0.56467    0.62319    1.000
    N2304    N        0.35493    0.54407    0.69587    1.000
    Si2305   Si       0.37797    0.55771    0.73197    1.000
    N2306    N        0.35266    0.61327    0.67197    1.000
    N2307    N        0.35666    0.67068    0.69408    1.000
    N2308    N        0.34506    0.66860    0.62318    1.000
    N2309    N        0.35913    0.72847    0.73517    1.000
    Si2310   Si       0.36957    0.65190    0.65600    1.000
    Si2311   Si       0.38222    0.69776    0.71513    1.000
    Si2312   Si       0.38520    0.75287    0.65823    1.000
    N2313    N        0.36258    0.73873    0.62197    1.000
    N2314    N        0.34790    0.54990    0.83482    1.000
    N2315    N        0.34332    0.54237    0.75950    1.000
    Si2316   Si       0.37291    0.54023    0.86857    1.000
    N2317    N        0.37465    0.59980    0.74273    1.000
    N2318    N        0.39517    0.63830    0.80122    1.000
    Si2319   Si       0.36164    0.73280    0.83655    1.000
    Si2320   Si       0.36125    0.66413    0.79745    1.000
    N2321    N        0.36218    0.70789    0.79969    1.000
    N2322    N        0.37607    0.69918    0.86285    1.000
    Si2323   Si       0.35302    0.66320    0.86460    1.000
    Si2324   Si       0.34192    0.73721    0.77248    1.000
    Si2325   Si       0.36498    0.54547    0.98781    1.000
    Si2326   Si       0.34761    0.61352    0.96453    1.000
    Si2327   Si       0.36908    0.60467    0.89818    1.000
    N2328    N        0.37974    0.62232    0.93711    1.000
    N2329    N        0.39436    0.57025    0.89096    1.000
    N2330    N        0.34352    0.57043    0.96071    1.000
    N2331    N        0.39984    0.52372    0.97955    1.000
    Si2332   Si       0.36910    0.74890    0.96275    1.000
    N2333    N        0.38379    0.63246    0.86808    1.000
    N2334    N        0.35417    0.73503    0.92630    1.000
    Si2335   Si       0.36599    0.77775    0.09263    1.000
    N2336    N        0.38490    0.86844    0.07016    1.000
    Si2337   Si       0.38149    0.83370    0.04397    1.000
    N2338    N        0.39327    0.80129    0.06999    1.000
    Si2339   Si       0.37767    0.87077    0.11282    1.000
    N2340    N        0.34434    0.81992    0.02285    1.000
    Si2341   Si       0.35789    0.90476    0.06441    1.000
    Si2342   Si       0.39042    0.93447    0.00042    1.000
    N2343    N        0.34836    0.90059    0.10804    1.000
    N2344    N        0.39678    0.98809    0.07982    1.000
    N2345    N        0.39781    0.92628    0.04263    1.000
    N2346    N        0.34237    0.98275    0.12042    1.000
    Si2347   Si       0.38043    0.80973    0.15554    1.000
    N2348    N        0.36430    0.79924    0.19403    1.000
    N2349    N        0.37833    0.77162    0.13336    1.000
    N2350    N        0.35839    0.83772    0.13274    1.000
    Si2351   Si       0.35724    0.83196    0.22175    1.000
    N2352    N        0.38103    0.86135    0.20116    1.000
    Si2353   Si       0.35305    0.76239    0.21243    1.000
    Si2354   Si       0.38514    0.99024    0.12112    1.000
    N2355    N        0.34786    0.91160    0.23365    1.000
    N2356    N        0.34579    0.95196    0.18388    1.000
    Si2357   Si       0.38874    0.95984    0.18766    1.000
    Si2358   Si       0.38850    0.89436    0.22825    1.000
    N2359    N        0.39613    0.99830    0.20249    1.000
    N2360    N        0.36940    0.83007    0.26150    1.000
    Si2361   Si       0.35160    0.81869    0.30017    1.000
    N2362    N        0.38987    0.83396    0.31776    1.000
    N2363    N        0.38226    0.78667    0.36391    1.000
    N2364    N        0.37050    0.92961    0.30268    1.000
    Si2365   Si       0.36644    0.92658    0.34416    1.000
    Si2366   Si       0.34085    0.00784    0.36676    1.000
    N2367    N        0.35053    0.96052    0.36653    1.000
    Si2368   Si       0.39260    0.78533    0.46379    1.000
    N2369    N        0.36579    0.84770    0.38097    1.000
    Si2370   Si       0.35496    0.80635    0.39210    1.000
    N2371    N        0.36861    0.79851    0.43185    1.000
    N2372    N        0.36148    0.85482    0.48823    1.000
    N2373    N        0.36256    0.00156    0.47926    1.000
    Si2374   Si       0.36829    0.96784    0.40596    1.000
    N2375    N        0.38581    0.92393    0.47201    1.000
    Si2376   Si       0.35819    0.95890    0.47761    1.000
    Si2377   Si       0.36881    0.88566    0.45753    1.000
    Si2378   Si       0.35438    0.80139    0.53263    1.000
    Si2379   Si       0.36995    0.77320    0.59763    1.000
    N2380    N        0.39268    0.82251    0.54199    1.000
    N2381    N        0.34630    0.87896    0.61506    1.000
    N2382    N        0.36391    0.77864    0.49611    1.000
    N2383    N        0.34055    0.77401    0.56481    1.000
    N2384    N        0.36052    0.80896    0.61735    1.000
    N2385    N        0.36100    0.99811    0.55602    1.000
    N2386    N        0.35982    0.93438    0.58163    1.000
    Si2387   Si       0.35703    0.95837    0.54507    1.000
    Si2388   Si       0.39231    0.94956    0.60533    1.000
    N2389    N        0.39842    0.95422    0.52706    1.000
    N2390    N        0.39299    0.84631    0.65646    1.000
    N2391    N        0.35999    0.77892    0.68345    1.000
    Si2392   Si       0.35976    0.81706    0.66418    1.000
    N2393    N        0.35890    0.84208    0.73624    1.000
    Si2394   Si       0.37368    0.88144    0.72450    1.000
    Si2395   Si       0.36274    0.99927    0.71466    1.000
    N2396    N        0.37421    0.98590    0.62096    1.000
    N2397    N        0.35565    0.96843    0.68715    1.000
    Si2398   Si       0.34235    0.93066    0.70572    1.000
    N2399    N        0.36380    0.89859    0.68562    1.000
    Si2400   Si       0.37700    0.88671    0.64514    1.000
    Si2401   Si       0.37698    0.84304    0.82730    1.000
    N2402    N        0.35200    0.76734    0.80269    1.000
    Si2403   Si       0.39502    0.77819    0.80512    1.000
    N2404    N        0.39435    0.82051    0.79563    1.000
    N2405    N        0.35816    0.87901    0.81118    1.000
    N2406    N        0.39339    0.76026    0.84529    1.000
    Si2407   Si       0.39715    0.82907    0.75325    1.000
    Si2408   Si       0.37395    0.99077    0.83612    1.000
    Si2409   Si       0.37962    0.91384    0.82766    1.000
    N2410    N        0.36856    0.95174    0.81366    1.000
    Si2411   Si       0.36686    0.95159    0.77072    1.000
    N2412    N        0.34716    0.98470    0.75179    1.000
    N2413    N        0.35840    0.91754    0.74451    1.000
    Si2414   Si       0.38724    0.82778    0.90382    1.000
    N2415    N        0.37701    0.79220    0.96250    1.000
    N2416    N        0.39069    0.86816    0.92069    1.000
    N2417    N        0.34688    0.81506    0.90456    1.000
    Si2418   Si       0.36481    0.88399    0.95319    1.000
    N2419    N        0.39200    0.89440    0.98320    1.000
    N2420    N        0.37881    0.91111    0.86976    1.000
    N2421    N        0.35242    0.95549    0.98788    1.000
    N2422    N        0.34302    0.91567    0.93180    1.000
    Si2423   Si       0.37154    0.00670    0.90980    1.000
    Si2424   Si       0.36630    0.99651    0.98506    1.000
    N2425    N        0.38856    0.99930    0.94833    1.000
    N2426    N        0.39686    0.99751    0.87429    1.000
    N2427    N        0.43414    0.10026    0.09450    1.000
    N2428    N        0.44001    0.06120    0.04354    1.000
    Si2429   Si       0.41359    0.05195    0.00986    1.000
    Si2430   Si       0.40695    0.09089    0.06156    1.000
    Si2431   Si       0.40147    0.12749    0.11341    1.000
    N2432    N        0.44277    0.18258    0.05023    1.000
    Si2433   Si       0.44468    0.24374    0.07529    1.000
    Si2434   Si       0.40801    0.20480    0.03745    1.000
    N2435    N        0.40335    0.23689    0.06570    1.000
    Si2436   Si       0.44772    0.24771    0.99537    1.000
    Si2437   Si       0.45619    0.17409    0.08954    1.000
    N2438    N        0.42088    0.21091    0.99446    1.000
    N2439    N        0.45815    0.02316    0.17168    1.000
    Si2440   Si       0.41652    0.02840    0.17461    1.000
    Si2441   Si       0.41421    0.10128    0.21505    1.000
    N2442    N        0.40806    0.06027    0.20545    1.000
    N2443    N        0.44498    0.12104    0.23921    1.000
    N2444    N        0.41336    0.13157    0.18061    1.000
    Si2445   Si       0.44759    0.14953    0.16002    1.000
    Si2446   Si       0.44025    0.21487    0.19431    1.000
    N2447    N        0.45003    0.24840    0.22146    1.000
    N2448    N        0.41713    0.18960    0.22433    1.000
    N2449    N        0.40614    0.22616    0.17196    1.000
    N2450    N        0.43180    0.15670    0.12026    1.000
    Si2451   Si       0.41244    0.15143    0.24565    1.000
    Si2452   Si       0.43909    0.10729    0.34653    1.000
    N2453    N        0.40691    0.07752    0.33289    1.000
    N2454    N        0.43432    0.01346    0.32132    1.000
    N2455    N        0.40481    0.03224    0.27142    1.000
    N2456    N        0.40413    0.13685    0.34797    1.000
    Si2457   Si       0.42909    0.16267    0.32113    1.000
    N2458    N        0.42634    0.20111    0.34155    1.000
    Si2459   Si       0.44663    0.22905    0.31658    1.000
    N2460    N        0.40732    0.16671    0.28415    1.000
    N2461    N        0.42750    0.25383    0.28746    1.000
    N2462    N        0.40144    0.12737    0.44668    1.000
    N2463    N        0.44464    0.02002    0.39193    1.000
    Si2464   Si       0.41638    0.08827    0.46020    1.000
    N2465    N        0.44186    0.11082    0.39105    1.000
    Si2466   Si       0.44330    0.03620    0.43316    1.000
    N2467    N        0.40324    0.04894    0.44760    1.000
    Si2468   Si       0.39961    0.13163    0.39703    1.000
    N2469    N        0.45740    0.07421    0.44561    1.000
    N2470    N        0.39921    0.24311    0.38722    1.000
    Si2471   Si       0.42548    0.22866    0.46902    1.000
    Si2472   Si       0.43156    0.06366    0.53559    1.000
    Si2473   Si       0.43739    0.10782    0.59595    1.000
    N2474    N        0.41266    0.08894    0.56571    1.000
    N2475    N        0.41750    0.09004    0.50432    1.000
    N2476    N        0.40981    0.03487    0.60547    1.000
    N2477    N        0.41210    0.02441    0.53623    1.000
    N2478    N        0.41748    0.14376    0.60825    1.000
    N2479    N        0.42057    0.21315    0.57765    1.000
    N2480    N        0.41585    0.15275    0.53988    1.000
    Si2481   Si       0.42189    0.23744    0.53989    1.000
    N2482    N        0.44154    0.21634    0.50751    1.000
    Si2483   Si       0.44428    0.23267    0.60809    1.000
    Si2484   Si       0.44777    0.17637    0.52376    1.000
    Si2485   Si       0.40433    0.17161    0.57768    1.000
    Si2486   Si       0.44719    0.04037    0.62575    1.000
    N2487    N        0.43905    0.12212    0.74109    1.000
    N2488    N        0.41822    0.08162    0.68990    1.000
    Si2489   Si       0.43258    0.04135    0.69829    1.000
    Si2490   Si       0.45643    0.09878    0.70972    1.000
    N2491    N        0.44930    0.02321    0.66482    1.000
    N2492    N        0.40450    0.01254    0.71700    1.000
    N2493    N        0.45836    0.08357    0.62340    1.000
    N2494    N        0.42211    0.15508    0.67756    1.000
    N2495    N        0.43034    0.19439    0.73740    1.000
    N2496    N        0.45487    0.20786    0.64003    1.000
    Si2497   Si       0.41864    0.15447    0.72381    1.000
    Si2498   Si       0.43202    0.10429    0.77995    1.000
    Si2499   Si       0.41070    0.12827    0.84628    1.000
    N2500    N        0.44669    0.01727    0.76908    1.000
    N2501    N        0.45824    0.01945    0.84928    1.000
    N2502    N        0.43374    0.13405    0.81078    1.000
    Si2503   Si       0.44040    0.00823    0.81082    1.000
    N2504    N        0.44055    0.20085    0.82754    1.000
    Si2505   Si       0.40697    0.22626    0.82576    1.000
    Si2506   Si       0.44910    0.18412    0.86558    1.000
    N2507    N        0.40789    0.09191    0.87186    1.000
    Si2508   Si       0.40583    0.10642    0.98008    1.000
    N2509    N        0.42745    0.06809    0.97328    1.000
    N2510    N        0.44514    0.04079    0.91002    1.000
    Si2511   Si       0.44502    0.08040    0.89204    1.000
    N2512    N        0.45263    0.11247    0.91961    1.000
    N2513    N        0.44457    0.13063    0.98399    1.000
    N2514    N        0.44078    0.18074    0.93902    1.000
    Si2515   Si       0.42361    0.14596    0.91852    1.000
    N2516    N        0.41496    0.16128    0.87698    1.000
    Si2517   Si       0.44503    0.22292    0.92801    1.000
    N2518    N        0.40398    0.24307    0.93238    1.000
    Si2519   Si       0.44445    0.17412    0.98190    1.000
    Si2520   Si       0.43487    0.35506    0.04430    1.000
    Si2521   Si       0.44294    0.32103    0.10907    1.000
    N2522    N        0.44534    0.27747    0.10274    1.000
    N2523    N        0.45143    0.33561    0.00857    1.000
    N2524    N        0.45747    0.34937    0.07956    1.000
    N2525    N        0.41373    0.27382    0.99558    1.000
    N2526    N        0.43631    0.39940    0.03533    1.000
    Si2527   Si       0.42185    0.48717    0.04057    1.000
    Si2528   Si       0.40523    0.41900    0.01120    1.000
    N2529    N        0.41272    0.46038    0.00700    1.000
    N2530    N        0.43182    0.44129    0.11713    1.000
    N2531    N        0.40457    0.32852    0.12795    1.000
    N2532    N        0.44190    0.36996    0.22809    1.000
    Si2533   Si       0.42201    0.33200    0.21686    1.000
    Si2534   Si       0.40795    0.37285    0.13804    1.000
    N2535    N        0.45370    0.37222    0.13880    1.000
    N2536    N        0.44928    0.31318    0.19072    1.000
    N2537    N        0.45115    0.49310    0.16280    1.000
    Si2538   Si       0.43259    0.45596    0.15773    1.000
    N2539    N        0.40739    0.42096    0.24145    1.000
    Si2540   Si       0.42360    0.40336    0.20507    1.000
    N2541    N        0.45090    0.43278    0.18920    1.000
    Si2542   Si       0.41920    0.29606    0.29829    1.000
    N2543    N        0.41717    0.30697    0.25337    1.000
    N2544    N        0.40567    0.29429    0.34017    1.000
    Si2545   Si       0.41868    0.26383    0.24630    1.000
    N2546    N        0.45306    0.38697    0.29224    1.000
    Si2547   Si       0.42028    0.38508    0.26436    1.000
    Si2548   Si       0.42587    0.27326    0.37426    1.000
    Si2549   Si       0.40726    0.29712    0.43928    1.000
    N2550    N        0.43935    0.29415    0.41004    1.000
    Si2551   Si       0.42311    0.37096    0.43797    1.000
    N2552    N        0.41754    0.27226    0.47417    1.000
    N2553    N        0.42025    0.45445    0.39125    1.000
    Si2554   Si       0.41518    0.41215    0.37631    1.000
    Si2555   Si       0.40311    0.48799    0.37104    1.000
    N2556    N        0.43846    0.39021    0.47367    1.000
    N2557    N        0.43718    0.33984    0.57943    1.000
    N2558    N        0.43073    0.27730    0.54488    1.000
    Si2559   Si       0.42183    0.29928    0.58030    1.000
    N2560    N        0.41545    0.33716    0.51192    1.000
    Si2561   Si       0.44026    0.37307    0.51293    1.000
    Si2562   Si       0.43324    0.29648    0.50712    1.000
    Si2563   Si       0.41729    0.37773    0.58016    1.000
    N2564    N        0.42667    0.27421    0.61876    1.000
    N2565    N        0.41824    0.39869    0.54088    1.000
    N2566    N        0.43768    0.40349    0.60686    1.000
    N2567    N        0.44299    0.46926    0.55949    1.000
    Si2568   Si       0.43815    0.43854    0.52963    1.000
    Si2569   Si       0.43616    0.50178    0.58863    1.000
    N2570    N        0.40285    0.44876    0.50687    1.000
    N2571    N        0.43551    0.32929    0.67194    1.000
    N2572    N        0.44063    0.37297    0.72637    1.000
    Si2573   Si       0.45115    0.29432    0.64995    1.000
    Si2574   Si       0.45244    0.27332    0.72050    1.000
    N2575    N        0.41235    0.26614    0.73650    1.000
    Si2576   Si       0.43310    0.46007    0.69988    1.000
    N2577    N        0.42157    0.43109    0.73056    1.000
    N2578    N        0.40082    0.38786    0.66822    1.000
    Si2579   Si       0.40957    0.41730    0.63813    1.000
    N2580    N        0.43343    0.44493    0.66018    1.000
    N2581    N        0.42817    0.29426    0.79805    1.000
    Si2582   Si       0.43520    0.29121    0.84224    1.000
    N2583    N        0.43958    0.32978    0.86093    1.000
    N2584    N        0.40633    0.26021    0.85257    1.000
    N2585    N        0.45196    0.35583    0.79609    1.000
    Si2586   Si       0.44753    0.38991    0.76811    1.000
    N2587    N        0.44819    0.47565    0.77295    1.000
    Si2588   Si       0.41546    0.44719    0.77028    1.000
    N2589    N        0.41376    0.40903    0.78958    1.000
    N2590    N        0.45635    0.47140    0.87349    1.000
    N2591    N        0.42811    0.37130    0.91934    1.000
    N2592    N        0.44580    0.30928    0.94289    1.000
    Si2593   Si       0.42268    0.31384    0.98178    1.000
    Si2594   Si       0.43737    0.33122    0.90557    1.000
    Si2595   Si       0.45580    0.39457    0.94876    1.000
    Si2596   Si       0.42154    0.39509    0.88244    1.000
    N2597    N        0.41995    0.40254    0.97289    1.000
    N2598    N        0.41030    0.43294    0.90120    1.000
    Si2599   Si       0.40587    0.48191    0.97120    1.000
    N2600    N        0.44069    0.48005    0.94792    1.000
    Si2601   Si       0.44315    0.45616    0.91229    1.000
    N2602    N        0.44534    0.61689    0.10185    1.000
    N2603    N        0.42698    0.56366    0.06839    1.000
    Si2604   Si       0.42055    0.58026    0.10701    1.000
    N2605    N        0.45128    0.51771    0.02697    1.000
    N2606    N        0.43170    0.57972    0.00402    1.000
    N2607    N        0.41116    0.62806    0.04276    1.000
    Si2608   Si       0.40425    0.58595    0.03693    1.000
    Si2609   Si       0.45433    0.61493    0.99778    1.000
    Si2610   Si       0.42055    0.64648    0.08098    1.000
    Si2611   Si       0.43647    0.71721    0.10036    1.000
    N2612    N        0.44668    0.68087    0.07813    1.000
    Si2613   Si       0.41924    0.72344    0.00592    1.000
    N2614    N        0.45870    0.70687    0.01411    1.000
    N2615    N        0.43065    0.61739    0.18023    1.000
    N2616    N        0.42940    0.54136    0.20284    1.000
    N2617    N        0.44679    0.55396    0.13204    1.000
    Si2618   Si       0.44815    0.58107    0.20199    1.000
    Si2619   Si       0.42656    0.52918    0.16152    1.000
    Si2620   Si       0.42480    0.50509    0.22759    1.000
    N2621    N        0.40312    0.70931    0.12667    1.000
    Si2622   Si       0.40234    0.64802    0.19178    1.000
    N2623    N        0.42862    0.75126    0.17360    1.000
    Si2624   Si       0.45146    0.71803    0.19249    1.000
    N2625    N        0.43398    0.67995    0.18835    1.000
    N2626    N        0.45870    0.73283    0.23337    1.000
    N2627    N        0.42072    0.57078    0.30748    1.000
    Si2628   Si       0.43882    0.58351    0.34435    1.000
    N2629    N        0.41988    0.51932    0.26876    1.000
    Si2630   Si       0.44103    0.55718    0.27165    1.000
    N2631    N        0.45054    0.62530    0.34233    1.000
    N2632    N        0.44423    0.59304    0.24519    1.000
    Si2633   Si       0.42456    0.71387    0.30788    1.000
    N2634    N        0.41880    0.68871    0.33969    1.000
    Si2635   Si       0.41395    0.64561    0.33562    1.000
    Si2636   Si       0.40888    0.65867    0.26576    1.000
    N2637    N        0.45319    0.66096    0.26319    1.000
    N2638    N        0.40193    0.69947    0.27369    1.000
    N2639    N        0.42941    0.51922    0.38083    1.000
    N2640    N        0.41145    0.58317    0.37762    1.000
    N2641    N        0.44339    0.55361    0.44197    1.000
    Si2642   Si       0.41543    0.55111    0.40762    1.000
    Si2643   Si       0.44582    0.58783    0.46938    1.000
    N2644    N        0.40677    0.60705    0.47323    1.000
    N2645    N        0.43294    0.74318    0.37125    1.000
    N2646    N        0.40565    0.69211    0.40923    1.000
    Si2647   Si       0.43620    0.70074    0.38045    1.000
    N2648    N        0.41806    0.75308    0.44800    1.000
    N2649    N        0.41985    0.68264    0.47334    1.000
    N2650    N        0.41017    0.51907    0.51751    1.000
    Si2651   Si       0.45104    0.53241    0.52585    1.000
    N2652    N        0.45352    0.53778    0.56885    1.000
    N2653    N        0.45407    0.57182    0.50805    1.000
    N2654    N        0.44334    0.64227    0.51734    1.000
    Si2655   Si       0.41237    0.72372    0.57375    1.000
    N2656    N        0.44694    0.71778    0.54670    1.000
    N2657    N        0.43102    0.71774    0.61412    1.000
    Si2658   Si       0.40825    0.64777    0.49238    1.000
    N2659    N        0.43534    0.57945    0.62794    1.000
    N2660    N        0.41891    0.56884    0.70112    1.000
    Si2661   Si       0.43343    0.55546    0.66456    1.000
    Si2662   Si       0.44119    0.62063    0.63587    1.000
    N2663    N        0.40449    0.52461    0.65228    1.000
    Si2664   Si       0.44183    0.56851    0.73907    1.000
    N2665    N        0.45187    0.72542    0.73362    1.000
    Si2666   Si       0.45167    0.75462    0.62934    1.000
    Si2667   Si       0.44728    0.72207    0.68973    1.000
    N2668    N        0.40420    0.72067    0.68302    1.000
    N2669    N        0.41132    0.64958    0.65007    1.000
    N2670    N        0.40962    0.67079    0.73946    1.000
    Si2671   Si       0.43897    0.68085    0.63444    1.000
    N2672    N        0.44194    0.59718    0.84669    1.000
    N2673    N        0.44751    0.52713    0.82011    1.000
    Si2674   Si       0.44248    0.51840    0.77757    1.000
    N2675    N        0.41226    0.54171    0.75672    1.000
    N2676    N        0.43956    0.60899    0.75387    1.000
    Si2677   Si       0.40240    0.63162    0.75726    1.000
    Si2678   Si       0.41695    0.63368    0.83803    1.000
    Si2679   Si       0.44012    0.50685    0.85780    1.000
    N2680    N        0.43789    0.67104    0.85069    1.000
    Si2681   Si       0.45147    0.68456    0.74912    1.000
    N2682    N        0.44662    0.61158    0.91818    1.000
    Si2683   Si       0.43464    0.58076    0.88713    1.000
    Si2684   Si       0.43816    0.54005    0.99188    1.000
    Si2685   Si       0.41997    0.63886    0.93770    1.000
    N2686    N        0.41940    0.67733    0.92042    1.000
    Si2687   Si       0.41424    0.69359    0.88029    1.000
    N2688    N        0.40717    0.72761    0.96474    1.000
    N2689    N        0.42888    0.64402    0.97882    1.000
    N2690    N        0.43104    0.73040    0.89366    1.000
    Si2691   Si       0.43567    0.71554    0.93370    1.000
    Si2692   Si       0.42936    0.78490    0.05223    1.000
    N2693    N        0.41662    0.76619    0.01569    1.000
    N2694    N        0.44774    0.87449    0.04063    1.000
    Si2695   Si       0.42804    0.87306    0.00046    1.000
    N2696    N        0.40629    0.83511    0.00718    1.000
    N2697    N        0.44195    0.75693    0.08260    1.000
    Si2698   Si       0.42121    0.89448    0.06517    1.000
    Si2699   Si       0.42096    0.95762    0.06212    1.000
    N2700    N        0.43136    0.92510    0.09390    1.000
    N2701    N        0.45676    0.97011    0.04182    1.000
    Si2702   Si       0.44894    0.78951    0.17321    1.000
    N2703    N        0.42085    0.82038    0.16166    1.000
    Si2704   Si       0.41612    0.86152    0.17521    1.000
    N2705    N        0.44483    0.87233    0.20707    1.000
    Si2706   Si       0.42681    0.92545    0.13708    1.000
    N2707    N        0.40740    0.92457    0.20448    1.000
    Si2708   Si       0.45039    0.91459    0.20433    1.000
    N2709    N        0.40902    0.88470    0.14051    1.000
    N2710    N        0.40157    0.96029    0.14594    1.000
    N2711    N        0.44395    0.83201    0.26920    1.000
    Si2712   Si       0.40927    0.81764    0.35100    1.000
    N2713    N        0.44451    0.79869    0.33233    1.000
    Si2714   Si       0.40557    0.84815    0.28075    1.000
    Si2715   Si       0.41106    0.92803    0.28615    1.000
    Si2716   Si       0.44525    0.92252    0.35087    1.000
    N2717    N        0.44747    0.92182    0.30888    1.000
    N2718    N        0.41886    0.96684    0.27012    1.000
    N2719    N        0.40418    0.90845    0.35898    1.000
    Si2720   Si       0.44265    0.00257    0.27811    1.000
    N2721    N        0.45374    0.96311    0.36372    1.000
    N2722    N        0.40600    0.88918    0.26604    1.000
    N2723    N        0.42358    0.81118    0.48023    1.000
    N2724    N        0.43177    0.84268    0.37835    1.000
    Si2725   Si       0.40224    0.87203    0.38684    1.000
    Si2726   Si       0.45940    0.76113    0.43881    1.000
    Si2727   Si       0.42250    0.92537    0.44120    1.000
    Si2728   Si       0.44812    0.97540    0.40695    1.000
    N2729    N        0.44810    0.93630    0.47775    1.000
    N2730    N        0.40690    0.96173    0.42063    1.000
    N2731    N        0.40139    0.88709    0.42678    1.000
    N2732    N        0.45617    0.99895    0.44945    1.000
    N2733    N        0.43586    0.83125    0.60186    1.000
    Si2734   Si       0.42635    0.80709    0.56650    1.000
    N2735    N        0.40698    0.76829    0.57640    1.000
    N2736    N        0.42049    0.87579    0.50489    1.000
    N2737    N        0.45785    0.78984    0.53898    1.000
    Si2738   Si       0.39881    0.84042    0.50331    1.000
    Si2739   Si       0.44047    0.96352    0.54185    1.000
    Si2740   Si       0.41973    0.91999    0.50767    1.000
    N2741    N        0.42636    0.97272    0.58368    1.000
    N2742    N        0.45042    0.92219    0.54107    1.000
    N2743    N        0.41671    0.77926    0.64557    1.000
    Si2744   Si       0.42527    0.82226    0.64293    1.000
    N2745    N        0.42158    0.79799    0.73314    1.000
    Si2746   Si       0.45518    0.81185    0.71021    1.000
    N2747    N        0.41388    0.87001    0.73728    1.000
    N2748    N        0.45862    0.83168    0.67069    1.000
    Si2749   Si       0.45344    0.88111    0.73163    1.000
    Si2750   Si       0.43088    0.98877    0.74149    1.000
    Si2751   Si       0.45079    0.91583    0.65203    1.000
    N2752    N        0.40931    0.91748    0.63155    1.000
    N2753    N        0.45508    0.78698    0.85322    1.000
    N2754    N        0.43186    0.75835    0.78881    1.000
    N2755    N        0.40257    0.84461    0.86330    1.000
    Si2756   Si       0.44608    0.76424    0.75034    1.000
    Si2757   Si       0.44415    0.82690    0.86801    1.000
    N2758    N        0.42069    0.90757    0.81370    1.000
    N2759    N        0.40973    0.95471    0.75858    1.000
    Si2760   Si       0.43806    0.93370    0.78387    1.000
    Si2761   Si       0.45521    0.89419    0.83738    1.000
    N2762    N        0.45404    0.96759    0.80943    1.000
    Si2763   Si       0.42183    0.76714    0.87675    1.000
    N2764    N        0.45244    0.79868    0.96961    1.000
    Si2765   Si       0.41163    0.79889    0.98611    1.000
    N2766    N        0.41966    0.79960    0.90509    1.000
    Si2767   Si       0.43854    0.00525    0.88521    1.000
    N2768    N        0.45652    0.00578    0.97211    1.000
    N2769    N        0.42511    0.95398    0.98390    1.000
    N2770    N        0.44483    0.96923    0.91109    1.000
    Si2771   Si       0.40839    0.88546    0.88581    1.000
    N2772    N        0.44658    0.90558    0.87847    1.000
    Si2773   Si       0.42737    0.97950    0.94892    1.000
    Si2774   Si       0.47447    0.05124    0.07024    1.000
    Si2775   Si       0.47436    0.11154    0.10751    1.000
    N2776    N        0.49729    0.02640    0.04159    1.000
    N2777    N        0.50027    0.07676    0.09830    1.000
    N2778    N        0.47188    0.01562    0.09819    1.000
    N2779    N        0.48928    0.14568    0.08587    1.000
    Si2780   Si       0.48194    0.20020    0.03586    1.000
    N2781    N        0.46588    0.21531    0.10144    1.000
    N2782    N        0.46363    0.23845    0.03556    1.000
    Si2783   Si       0.50919    0.21806    0.09830    1.000
    N2784    N        0.48553    0.18268    0.99749    1.000
    N2785    N        0.51707    0.19804    0.05977    1.000
    N2786    N        0.47831    0.12104    0.15078    1.000
    Si2787   Si       0.50594    0.10410    0.17975    1.000
    Si2788   Si       0.48205    0.03553    0.20690    1.000
    N2789    N        0.49034    0.07704    0.20763    1.000
    Si2790   Si       0.48668    0.10937    0.23942    1.000
    N2791    N        0.46589    0.01762    0.24373    1.000
    N2792    N        0.51964    0.01163    0.20964    1.000
    Si2793   Si       0.48614    0.01121    0.13935    1.000
    N2794    N        0.46795    0.18777    0.17519    1.000
    N2795    N        0.51303    0.13539    0.21414    1.000
    N2796    N        0.48829    0.25614    0.16794    1.000
    Si2797   Si       0.50181    0.21422    0.16849    1.000
    N2798    N        0.50021    0.01902    0.34603    1.000
    N2799    N        0.47600    0.08513    0.33432    1.000
    Si2800   Si       0.50597    0.06008    0.35571    1.000
    Si2801   Si       0.50716    0.11346    0.32092    1.000
    N2802    N        0.51115    0.11288    0.27683    1.000
    N2803    N        0.48417    0.21119    0.30386    1.000
    Si2804   Si       0.49639    0.18095    0.33703    1.000
    N2805    N        0.46757    0.14599    0.32937    1.000
    N2806    N        0.50739    0.07562    0.39717    1.000
    Si2807   Si       0.47562    0.09895    0.41613    1.000
    N2808    N        0.50215    0.12515    0.43819    1.000
    Si2809   Si       0.50424    0.13589    0.47907    1.000
    N2810    N        0.51736    0.20050    0.45420    1.000
    N2811    N        0.49962    0.19706    0.37912    1.000
    N2812    N        0.47562    0.16445    0.49322    1.000
    N2813    N        0.46281    0.22353    0.44639    1.000
    Si2814   Si       0.49598    0.21687    0.41999    1.000
    Si2815   Si       0.48492    0.20917    0.48376    1.000
    Si2816   Si       0.49823    0.01666    0.52503    1.000
    N2817    N        0.47065    0.11464    0.56832    1.000
    Si2818   Si       0.49497    0.08540    0.54742    1.000
    N2819    N        0.47219    0.04906    0.53735    1.000
    N2820    N        0.50512    0.10052    0.50733    1.000
    N2821    N        0.47732    0.01559    0.60786    1.000
    N2822    N        0.47520    0.18067    0.55889    1.000
    Si2823   Si       0.48917    0.15077    0.58435    1.000
    Si2824   Si       0.49643    0.21769    0.55792    1.000
    N2825    N        0.48237    0.24568    0.58858    1.000
    N2826    N        0.50492    0.22926    0.51681    1.000
    N2827    N        0.47636    0.12238    0.68268    1.000
    Si2828   Si       0.48940    0.10887    0.64326    1.000
    N2829    N        0.46756    0.05685    0.71778    1.000
    Si2830   Si       0.46306    0.16426    0.66515    1.000
    Si2831   Si       0.47873    0.22804    0.67092    1.000
    N2832    N        0.48360    0.19105    0.69581    1.000
    N2833    N        0.48104    0.14804    0.62813    1.000
    N2834    N        0.48089    0.24449    0.73921    1.000
    Si2835   Si       0.47235    0.20122    0.73866    1.000
    Si2836   Si       0.49463    0.04358    0.85344    1.000
    Si2837   Si       0.50227    0.11973    0.85869    1.000
    Si2838   Si       0.50639    0.08149    0.79906    1.000
    Si2839   Si       0.48195    0.04554    0.75862    1.000
    N2840    N        0.46598    0.07577    0.78785    1.000
    N2841    N        0.48006    0.08279    0.86300    1.000
    N2842    N        0.51124    0.01234    0.75341    1.000
    N2843    N        0.51396    0.04183    0.81565    1.000
    N2844    N        0.48550    0.18067    0.77711    1.000
    N2845    N        0.48036    0.15886    0.84883    1.000
    Si2846   Si       0.46405    0.16773    0.81031    1.000
    N2847    N        0.49198    0.06729    0.95658    1.000
    Si2848   Si       0.47399    0.10766    0.95789    1.000
    Si2849   Si       0.45589    0.04365    0.95239    1.000
    N2850    N        0.46741    0.24580    0.95765    1.000
    Si2851   Si       0.49478    0.24332    0.87509    1.000
    N2852    N        0.50929    0.13171    0.95609    1.000
    N2853    N        0.46287    0.21732    0.88930    1.000
    Si2854   Si       0.47869    0.37812    0.10329    1.000
    N2855    N        0.51577    0.25974    0.10516    1.000
    N2856    N        0.50744    0.41271    0.01448    1.000
    Si2857   Si       0.48707    0.49121    0.03527    1.000
    Si2858   Si       0.47404    0.41833    0.04032    1.000
    N2859    N        0.48741    0.41390    0.08075    1.000
    Si2860   Si       0.46585    0.44866    0.09502    1.000
    N2861    N        0.46000    0.46243    0.05301    1.000
    N2862    N        0.49440    0.47083    0.11715    1.000
    N2863    N        0.49765    0.47767    0.99615    1.000
    Si2864   Si       0.48014    0.27347    0.12822    1.000
    N2865    N        0.48334    0.31615    0.13114    1.000
    N2866    N        0.50125    0.36194    0.19156    1.000
    Si2867   Si       0.47321    0.34183    0.16583    1.000
    Si2868   Si       0.47566    0.28032    0.20379    1.000
    N2869    N        0.51221    0.28277    0.22748    1.000
    Si2870   Si       0.48755    0.37784    0.22984    1.000
    Si2871   Si       0.48123    0.45287    0.21214    1.000
    N2872    N        0.51237    0.47699    0.19081    1.000
    N2873    N        0.49541    0.42000    0.24146    1.000
    Si2874   Si       0.49518    0.49346    0.15421    1.000
    N2875    N        0.46098    0.48319    0.23589    1.000
    Si2876   Si       0.47873    0.35038    0.29191    1.000
    Si2877   Si       0.48212    0.29310    0.33720    1.000
    N2878    N        0.50075    0.34485    0.25525    1.000
    N2879    N        0.50479    0.36472    0.32339    1.000
    N2880    N        0.45938    0.31275    0.30513    1.000
    N2881    N        0.48891    0.32005    0.36896    1.000
    N2882    N        0.45710    0.25803    0.34963    1.000
    Si2883   Si       0.47661    0.39987    0.32764    1.000
    N2884    N        0.49942    0.43199    0.31579    1.000
    Si2885   Si       0.49774    0.46949    0.33376    1.000
    Si2886   Si       0.47652    0.50106    0.27418    1.000
    N2887    N        0.46847    0.49618    0.31702    1.000
    N2888    N        0.51710    0.48193    0.27565    1.000
    N2889    N        0.45640    0.40079    0.36456    1.000
    N2890    N        0.50867    0.31337    0.43044    1.000
    Si2891   Si       0.47283    0.32115    0.40810    1.000
    Si2892   Si       0.51005    0.30982    0.47406    1.000
    N2893    N        0.47330    0.30290    0.49418    1.000
    N2894    N        0.45975    0.35954    0.41894    1.000
    N2895    N        0.51264    0.38890    0.45931    1.000
    N2896    N        0.47187    0.42746    0.42487    1.000
    N2897    N        0.46682    0.49120    0.44201    1.000
    N2898    N        0.48419    0.48011    0.37474    1.000
    Si2899   Si       0.48052    0.39302    0.40080    1.000
    Si2900   Si       0.47527    0.41211    0.46572    1.000
    Si2901   Si       0.45867    0.46637    0.40844    1.000
    Si2902   Si       0.47926    0.34545    0.56857    1.000
    N2903    N        0.48022    0.37041    0.53238    1.000
    N2904    N        0.50099    0.31001    0.56345    1.000
    N2905    N        0.49907    0.37285    0.59896    1.000
    Si2906   Si       0.50610    0.28290    0.59710    1.000
    N2907    N        0.49615    0.43274    0.56697    1.000
    Si2908   Si       0.48622    0.47488    0.55485    1.000
    Si2909   Si       0.48040    0.41118    0.60326    1.000
    Si2910   Si       0.50266    0.40926    0.53073    1.000
    N2911    N        0.47491    0.43183    0.50501    1.000
    N2912    N        0.48335    0.50141    0.51937    1.000
    N2913    N        0.46335    0.49225    0.62135    1.000
    N2914    N        0.49168    0.30599    0.63282    1.000
    N2915    N        0.50364    0.34680    0.69283    1.000
    Si2916   Si       0.46117    0.34394    0.70334    1.000
    N2917    N        0.45520    0.26371    0.68069    1.000
    N2918    N        0.46095    0.31228    0.73301    1.000
    Si2919   Si       0.47400    0.46431    0.65322    1.000
    N2920    N        0.51661    0.49885    0.65447    1.000
    N2921    N        0.47236    0.47857    0.69644    1.000
    N2922    N        0.50096    0.43328    0.63485    1.000
    N2923    N        0.49509    0.29902    0.78501    1.000
    N2924    N        0.50201    0.34134    0.83671    1.000
    N2925    N        0.47563    0.27565    0.85460    1.000
    Si2926   Si       0.46230    0.36150    0.83883    1.000
    Si2927   Si       0.51080    0.26744    0.76095    1.000
    Si2928   Si       0.45815    0.31820    0.77686    1.000
    Si2929   Si       0.50245    0.31034    0.87068    1.000
    Si2930   Si       0.48855    0.45715    0.78062    1.000
    N2931    N        0.49385    0.45877    0.82368    1.000
    N2932    N        0.48295    0.41387    0.77133    1.000
    Si2933   Si       0.47791    0.43601    0.85733    1.000
    N2934    N        0.45512    0.39954    0.85483    1.000
    N2935    N        0.48957    0.33730    0.90151    1.000
    N2936    N        0.50694    0.27110    0.90972    1.000
    Si2937   Si       0.48351    0.28534    0.94390    1.000
    N2938    N        0.48986    0.36991    0.95912    1.000
    N2939    N        0.50733    0.30356    0.97405    1.000
    Si2940   Si       0.49212    0.33996    0.99173    1.000
    N2941    N        0.50251    0.49214    0.92303    1.000
    Si2942   Si       0.48057    0.49539    0.96140    1.000
    Si2943   Si       0.50734    0.44836    0.92097    1.000
    N2944    N        0.47244    0.42659    0.92671    1.000
    N2945    N        0.48929    0.57970    0.03920    1.000
    N2946    N        0.50206    0.52282    0.06265    1.000
    Si2947   Si       0.51188    0.61832    0.04256    1.000
    N2948    N        0.50941    0.59434    0.11736    1.000
    Si2949   Si       0.46528    0.54754    0.05413    1.000
    Si2950   Si       0.48401    0.62917    0.10838    1.000
    N2951    N        0.48098    0.64319    0.01999    1.000
    Si2952   Si       0.47776    0.68090    0.04495    1.000
    N2953    N        0.50727    0.64609    0.07680    1.000
    N2954    N        0.51511    0.70590    0.05386    1.000
    Si2955   Si       0.48895    0.56484    0.14119    1.000
    N2956    N        0.48614    0.57373    0.18405    1.000
    N2957    N        0.51059    0.52894    0.13512    1.000
    Si2958   Si       0.51572    0.59806    0.19983    1.000
    N2959    N        0.49396    0.70734    0.18470    1.000
    N2960    N        0.48999    0.62946    0.21212    1.000
    Si2961   Si       0.50011    0.69662    0.14369    1.000
    N2962    N        0.47351    0.72227    0.12324    1.000
    Si2963   Si       0.46460    0.64789    0.18003    1.000
    N2964    N        0.48626    0.65545    0.14294    1.000
    N2965    N        0.48226    0.54386    0.26799    1.000
    N2966    N        0.47597    0.55846    0.34810    1.000
    N2967    N        0.50775    0.60984    0.27744    1.000
    Si2968   Si       0.47467    0.62393    0.25296    1.000
    Si2969   Si       0.46574    0.51866    0.35840    1.000
    Si2970   Si       0.50099    0.74266    0.30999    1.000
    Si2971   Si       0.48649    0.64336    0.35849    1.000
    Si2972   Si       0.47169    0.70119    0.26087    1.000
    N2973    N        0.46711    0.71813    0.30106    1.000
    N2974    N        0.51190    0.69942    0.24861    1.000
    N2975    N        0.51848    0.65655    0.33245    1.000
    Si2976   Si       0.50635    0.57135    0.37709    1.000
    N2977    N        0.48415    0.60191    0.45174    1.000
    N2978    N        0.50139    0.61283    0.38637    1.000
    N2979    N        0.49635    0.53946    0.40332    1.000
    Si2980   Si       0.48015    0.53106    0.44198    1.000
    N2981    N        0.51210    0.53986    0.47120    1.000
    Si2982   Si       0.51046    0.62486    0.42728    1.000
    Si2983   Si       0.49855    0.72537    0.47437    1.000
    N2984    N        0.48304    0.72577    0.43259    1.000
    N2985    N        0.47308    0.67914    0.38126    1.000
    Si2986   Si       0.50197    0.69786    0.40633    1.000
    N2987    N        0.52041    0.66610    0.42988    1.000
    N2988    N        0.50125    0.55773    0.61305    1.000
    N2989    N        0.50918    0.61543    0.50691    1.000
    Si2990   Si       0.47025    0.60866    0.52609    1.000
    N2991    N        0.47371    0.60295    0.56687    1.000
    Si2992   Si       0.46373    0.57074    0.59499    1.000
    Si2993   Si       0.50187    0.51414    0.61665    1.000
    Si2994   Si       0.48838    0.63877    0.58537    1.000
    N2995    N        0.49612    0.67015    0.55399    1.000
    Si2996   Si       0.46231    0.68103    0.52756    1.000
    Si2997   Si       0.47302    0.75298    0.55721    1.000
    N2998    N        0.49498    0.68837    0.49697    1.000
    N2999    N        0.45655    0.65361    0.60792    1.000
    N3000    N        0.51603    0.73784    0.54971    1.000
    Si3001   Si       0.49597    0.58585    0.67987    1.000
    N3002    N        0.47572    0.62029    0.66260    1.000
    N3003    N        0.47464    0.54930    0.67493    1.000
    N3004    N        0.49463    0.58934    0.72228    1.000
    Si3005   Si       0.49429    0.51446    0.68924    1.000
    N3006    N        0.47941    0.65777    0.72764    1.000
    Si3007   Si       0.48786    0.65509    0.68488    1.000
    N3008    N        0.47019    0.75399    0.66952    1.000
    N3009    N        0.46406    0.68739    0.66785    1.000
    N3010    N        0.47257    0.54399    0.75892    1.000
    N3011    N        0.50905    0.56445    0.82862    1.000
    Si3012   Si       0.46788    0.56088    0.83544    1.000
    N3013    N        0.50100    0.62176    0.78592    1.000
    Si3014   Si       0.48166    0.62034    0.74801    1.000
    Si3015   Si       0.51215    0.55491    0.74538    1.000
    N3016    N        0.50730    0.67564    0.83675    1.000
    N3017    N        0.48762    0.73312    0.82819    1.000
    Si3018   Si       0.46604    0.69477    0.82973    1.000
    Si3019   Si       0.50850    0.66353    0.79529    1.000
    N3020    N        0.46782    0.68287    0.78827    1.000
    N3021    N        0.47254    0.53606    0.96769    1.000
    N3022    N        0.48848    0.60360    0.96842    1.000
    Si3023   Si       0.48830    0.62081    0.92577    1.000
    Si3024   Si       0.50508    0.56380    0.96446    1.000
    Si3025   Si       0.50179    0.52844    0.89834    1.000
    N3026    N        0.46199    0.54383    0.87967    1.000
    N3027    N        0.51180    0.61518    0.89083    1.000
    N3028    N        0.51540    0.65066    0.94331    1.000
    Si3029   Si       0.49159    0.72123    0.98920    1.000
    Si3030   Si       0.51052    0.64754    0.98596    1.000
    N3031    N        0.47623    0.72201    0.94767    1.000
    Si3032   Si       0.50970    0.73936    0.92937    1.000
    N3033    N        0.51947    0.73649    0.88600    1.000
    Si3034   Si       0.47684    0.84608    0.05672    1.000
    N3035    N        0.47455    0.84777    0.10028    1.000
    Si3036   Si       0.48347    0.79638    0.00121    1.000
    Si3037   Si       0.47775    0.76385    0.10597    1.000
    N3038    N        0.46544    0.80679    0.03826    1.000
    N3039    N        0.50104    0.75800    0.00829    1.000
    Si3040   Si       0.48629    0.99011    0.06692    1.000
    Si3041   Si       0.46171    0.97104    0.99932    1.000
    Si3042   Si       0.46344    0.83843    0.23044    1.000
    N3043    N        0.46386    0.79951    0.21283    1.000
    Si3044   Si       0.48399    0.76891    0.23501    1.000
    N3045    N        0.49542    0.85846    0.16530    1.000
    N3046    N        0.47940    0.78979    0.13975    1.000
    Si3047   Si       0.49519    0.83117    0.13354    1.000
    N3048    N        0.50396    0.85310    0.24015    1.000
    N3049    N        0.50982    0.97425    0.14538    1.000
    N3050    N        0.46098    0.92258    0.16387    1.000
    N3051    N        0.46557    0.93012    0.24060    1.000
    Si3052   Si       0.49702    0.90264    0.15994    1.000
    N3053    N        0.48744    0.77689    0.27977    1.000
    N3054    N        0.49439    0.84556    0.30854    1.000
    Si3055   Si       0.50123    0.86656    0.34589    1.000
    Si3056   Si       0.46815    0.81172    0.29763    1.000
    N3057    N        0.50046    0.76657    0.34634    1.000
    Si3058   Si       0.46315    0.77327    0.36401    1.000
    Si3059   Si       0.51895    0.86713    0.27874    1.000
    N3060    N        0.47430    0.89433    0.36462    1.000
    Si3061   Si       0.47947    0.93708    0.28138    1.000
    N3062    N        0.48410    0.97815    0.28942    1.000
    N3063    N        0.51231    0.90948    0.28597    1.000
    Si3064   Si       0.50520    0.99605    0.24934    1.000
    Si3065   Si       0.45961    0.00591    0.35342    1.000
    N3066    N        0.47950    0.86328    0.43066    1.000
    N3067    N        0.47948    0.76603    0.47925    1.000
    N3068    N        0.46519    0.79027    0.40573    1.000
    N3069    N        0.50422    0.83401    0.37492    1.000
    Si3070   Si       0.50281    0.85514    0.46555    1.000
    Si3071   Si       0.46750    0.83245    0.40059    1.000
    Si3072   Si       0.48277    0.89991    0.40685    1.000
    Si3073   Si       0.47525    0.96945    0.47618    1.000
    N3074    N        0.51652    0.96773    0.47141    1.000
    N3075    N        0.46085    0.93388    0.41791    1.000
    N3076    N        0.48895    0.86956    0.56325    1.000
    Si3077   Si       0.47412    0.85362    0.60200    1.000
    N3078    N        0.47888    0.76631    0.59731    1.000
    Si3079   Si       0.51302    0.83979    0.54027    1.000
    N3080    N        0.48990    0.83549    0.50090    1.000
    Si3081   Si       0.51514    0.79087    0.59656    1.000
    Si3082   Si       0.46310    0.79963    0.49752    1.000
    N3083    N        0.50811    0.83089    0.61622    1.000
    N3084    N        0.49055    0.94707    0.58408    1.000
    Si3085   Si       0.48901    0.91187    0.55624    1.000
    N3086    N        0.47043    0.98477    0.51860    1.000
    Si3087   Si       0.46305    0.97209    0.60786    1.000
    Si3088   Si       0.48594    0.86884    0.67094    1.000
    N3089    N        0.48103    0.78209    0.73059    1.000
    N3090    N        0.47605    0.84401    0.73435    1.000
    Si3091   Si       0.50300    0.76109    0.69754    1.000
    Si3092   Si       0.47570    0.99008    0.67523    1.000
    N3093    N        0.51689    0.00335    0.67926    1.000
    Si3094   Si       0.48059    0.93500    0.71930    1.000
    N3095    N        0.46569    0.95688    0.64812    1.000
    N3096    N        0.47118    0.88453    0.63237    1.000
    N3097    N        0.46578    0.90201    0.69216    1.000
    N3098    N        0.46117    0.97421    0.71522    1.000
    N3099    N        0.48548    0.80018    0.79667    1.000
    Si3100   Si       0.49784    0.82900    0.82524    1.000
    Si3101   Si       0.49734    0.81237    0.75757    1.000
    N3102    N        0.46605    0.85331    0.83828    1.000
    Si3103   Si       0.46706    0.76783    0.81621    1.000
    Si3104   Si       0.49266    0.95696    0.82872    1.000
    N3105    N        0.49055    0.91452    0.82250    1.000
    N3106    N        0.46366    0.91519    0.75524    1.000
    Si3107   Si       0.49638    0.87177    0.90565    1.000
    N3108    N        0.50236    0.78368    0.92366    1.000
    N3109    N        0.46746    0.83879    0.90305    1.000
    N3110    N        0.51442    0.82227    0.98530    1.000
    Si3111   Si       0.46294    0.80337    0.92680    1.000
    N3112    N        0.49622    0.95966    0.87019    1.000
    N3113    N        0.46289    0.88149    0.97880    1.000
    Si3114   Si       0.49586    0.90983    0.96957    1.000
    N3115    N        0.48997    0.91027    0.92567    1.000
    N3116    N        0.49690    0.95170    0.98491    1.000
    Si3117   Si       0.47093    0.93704    0.89757    1.000
    Si3118   Si       0.53866    0.02580    0.02746    1.000
    Si3119   Si       0.56531    0.10807    0.02306    1.000
    N3120    N        0.55576    0.06428    0.03877    1.000
    N3121    N        0.57360    0.05339    0.10703    1.000
    N3122    N        0.53366    0.13768    0.02836    1.000
    N3123    N        0.56052    0.15886    0.09744    1.000
    Si3124   Si       0.52666    0.15669    0.06781    1.000
    Si3125   Si       0.53519    0.06694    0.12614    1.000
    N3126    N        0.54153    0.09605    0.15718    1.000
    N3127    N        0.52245    0.03351    0.14785    1.000
    N3128    N        0.56530    0.08431    0.24785    1.000
    N3129    N        0.56212    0.15974    0.17115    1.000
    N3130    N        0.52477    0.20271    0.13472    1.000
    Si3131   Si       0.53895    0.16810    0.20910    1.000
    Si3132   Si       0.53658    0.24720    0.22690    1.000
    Si3133   Si       0.56326    0.18271    0.13453    1.000
    N3134    N        0.52608    0.21044    0.20518    1.000
    N3135    N        0.53895    0.08260    0.33468    1.000
    Si3136   Si       0.55246    0.12167    0.26534    1.000
    Si3137   Si       0.56696    0.04380    0.26917    1.000
    N3138    N        0.53069    0.02177    0.27643    1.000
    N3139    N        0.53116    0.15185    0.32988    1.000
    N3140    N        0.54554    0.23015    0.26589    1.000
    N3141    N        0.53757    0.21476    0.33351    1.000
    Si3142   Si       0.56465    0.18071    0.33280    1.000
    Si3143   Si       0.51972    0.23682    0.30037    1.000
    N3144    N        0.55937    0.16307    0.24875    1.000
    N3145    N        0.56451    0.12290    0.40480    1.000
    Si3146   Si       0.53443    0.09774    0.42326    1.000
    N3147    N        0.55137    0.07605    0.45650    1.000
    N3148    N        0.57252    0.18549    0.37516    1.000
    N3149    N        0.53072    0.24442    0.40684    1.000
    Si3150   Si       0.55492    0.18773    0.46872    1.000
    N3151    N        0.54691    0.14878    0.48730    1.000
    Si3152   Si       0.53965    0.21588    0.37558    1.000
    Si3153   Si       0.54410    0.10074    0.59923    1.000
    N3154    N        0.53379    0.03361    0.50518    1.000
    Si3155   Si       0.56064    0.01241    0.53335    1.000
    N3156    N        0.56900    0.09598    0.52155    1.000
    N3157    N        0.52318    0.06920    0.57583    1.000
    Si3158   Si       0.53871    0.07656    0.49839    1.000
    N3159    N        0.55185    0.02418    0.61694    1.000
    Si3160   Si       0.51596    0.02923    0.59285    1.000
    N3161    N        0.53090    0.14005    0.58248    1.000
    Si3162   Si       0.56165    0.24472    0.57083    1.000
    N3163    N        0.53836    0.20814    0.57161    1.000
    Si3164   Si       0.56084    0.17154    0.57600    1.000
    Si3165   Si       0.54225    0.25058    0.50376    1.000
    N3166    N        0.56728    0.21668    0.49884    1.000
    N3167    N        0.55193    0.11693    0.70680    1.000
    N3168    N        0.53186    0.10211    0.63925    1.000
    Si3169   Si       0.56305    0.09793    0.66872    1.000
    Si3170   Si       0.55279    0.02120    0.66195    1.000
    N3171    N        0.56813    0.05685    0.67900    1.000
    N3172    N        0.57208    0.00648    0.72209    1.000
    N3173    N        0.52066    0.23114    0.66386    1.000
    N3174    N        0.54022    0.18842    0.73528    1.000
    Si3175   Si       0.56659    0.15566    0.71815    1.000
    Si3176   Si       0.55163    0.25685    0.64648    1.000
    N3177    N        0.56266    0.17928    0.67904    1.000
    Si3178   Si       0.52842    0.19975    0.69514    1.000
    N3179    N        0.52561    0.07778    0.76194    1.000
    Si3180   Si       0.52869    0.01043    0.79152    1.000
    N3181    N        0.52225    0.11452    0.81887    1.000
    Si3182   Si       0.55928    0.09667    0.74539    1.000
    N3183    N        0.57125    0.13237    0.76617    1.000
    Si3184   Si       0.55499    0.14047    0.80576    1.000
    N3185    N        0.54787    0.18221    0.80845    1.000
    N3186    N        0.53324    0.23132    0.85551    1.000
    Si3187   Si       0.55717    0.22583    0.81857    1.000
    N3188    N        0.52435    0.23730    0.78796    1.000
    Si3189   Si       0.52474    0.19752    0.77434    1.000
    N3190    N        0.55803    0.09102    0.98335    1.000
    Si3191   Si       0.53334    0.05838    0.96479    1.000
    Si3192   Si       0.56330    0.04498    0.89118    1.000
    N3193    N        0.55875    0.05809    0.93135    1.000
    N3194    N        0.53527    0.01921    0.98453    1.000
    N3195    N        0.52454    0.02622    0.88009    1.000
    N3196    N        0.53237    0.12582    0.88657    1.000
    Si3197   Si       0.57433    0.12379    0.87814    1.000
    Si3198   Si       0.54824    0.21182    0.94232    1.000
    Si3199   Si       0.52019    0.15774    0.98983    1.000
    N3200    N        0.56961    0.23567    0.91248    1.000
    N3201    N        0.55366    0.17614    0.96993    1.000
    N3202    N        0.53296    0.18664    0.91109    1.000
    Si3203   Si       0.56358    0.20564    0.88109    1.000
    Si3204   Si       0.53571    0.14455    0.92410    1.000
    N3205    N        0.53592    0.24123    0.97030    1.000
    Si3206   Si       0.55523    0.27273    0.09648    1.000
    N3207    N        0.54549    0.31288    0.08144    1.000
    Si3208   Si       0.55235    0.31849    0.04121    1.000
    N3209    N        0.56596    0.28186    0.01729    1.000
    N3210    N        0.52306    0.34669    0.02066    1.000
    Si3211   Si       0.54144    0.38548    0.01665    1.000
    N3212    N        0.55786    0.40126    0.05445    1.000
    N3213    N        0.53436    0.46892    0.06112    1.000
    Si3214   Si       0.53041    0.42663    0.07713    1.000
    N3215    N        0.56582    0.46091    0.00632    1.000
    Si3216   Si       0.52089    0.49734    0.09374    1.000
    Si3217   Si       0.57146    0.48325    0.04460    1.000
    N3218    N        0.56045    0.49554    0.11605    1.000
    N3219    N        0.55520    0.42979    0.11513    1.000
    Si3220   Si       0.52536    0.32779    0.11772    1.000
    N3221    N        0.52377    0.37014    0.11266    1.000
    Si3222   Si       0.54313    0.35226    0.18559    1.000
    N3223    N        0.55761    0.33070    0.22035    1.000
    N3224    N        0.54570    0.32184    0.15510    1.000
    N3225    N        0.57028    0.26243    0.20194    1.000
    N3226    N        0.57355    0.48046    0.24017    1.000
    Si3227   Si       0.55945    0.38848    0.12652    1.000
    N3228    N        0.56453    0.38557    0.17100    1.000
    Si3229   Si       0.55471    0.48680    0.19926    1.000
    Si3230   Si       0.55409    0.29757    0.32434    1.000
    N3231    N        0.55731    0.32796    0.35555    1.000
    N3232    N        0.56138    0.31564    0.28336    1.000
    Si3233   Si       0.53129    0.31530    0.25005    1.000
    Si3234   Si       0.51924    0.34962    0.35929    1.000
    N3235    N        0.51730    0.27678    0.31709    1.000
    N3236    N        0.53648    0.48584    0.34855    1.000
    N3237    N        0.55846    0.42484    0.27788    1.000
    Si3238   Si       0.55623    0.50113    0.27393    1.000
    Si3239   Si       0.51580    0.43846    0.27613    1.000
    Si3240   Si       0.57653    0.47145    0.34272    1.000
    N3241    N        0.53267    0.27266    0.46898    1.000
    Si3242   Si       0.53893    0.28085    0.42718    1.000
    Si3243   Si       0.54300    0.37448    0.48858    1.000
    N3244    N        0.57424    0.37585    0.46158    1.000
    N3245    N        0.52162    0.38007    0.39002    1.000
    N3246    N        0.54361    0.46923    0.48365    1.000
    N3247    N        0.54610    0.49667    0.41717    1.000
    Si3248   Si       0.54897    0.38787    0.42517    1.000
    Si3249   Si       0.55858    0.46486    0.44266    1.000
    N3250    N        0.56275    0.42914    0.42007    1.000
    Si3251   Si       0.54253    0.36614    0.60007    1.000
    N3252    N        0.55726    0.34601    0.56594    1.000
    N3253    N        0.55678    0.27424    0.53641    1.000
    Si3254   Si       0.53719    0.31551    0.54079    1.000
    N3255    N        0.54619    0.26812    0.60424    1.000
    N3256    N        0.53697    0.33323    0.50093    1.000
    N3257    N        0.54273    0.40696    0.51368    1.000
    Si3258   Si       0.56520    0.44492    0.51356    1.000
    Si3259   Si       0.55742    0.49599    0.56480    1.000
    N3260    N        0.55854    0.40556    0.59919    1.000
    N3261    N        0.56897    0.45623    0.55489    1.000
    N3262    N        0.51713    0.49424    0.58052    1.000
    N3263    N        0.56902    0.34409    0.70511    1.000
    N3264    N        0.55106    0.34715    0.63925    1.000
    N3265    N        0.54688    0.29121    0.67159    1.000
    Si3266   Si       0.53324    0.36101    0.72119    1.000
    Si3267   Si       0.56977    0.29995    0.70571    1.000
    N3268    N        0.54930    0.28275    0.74059    1.000
    Si3269   Si       0.52132    0.32354    0.65912    1.000
    N3270    N        0.56024    0.46563    0.70420    1.000
    Si3271   Si       0.55817    0.48667    0.66623    1.000
    N3272    N        0.56288    0.40449    0.66846    1.000
    N3273    N        0.53794    0.40518    0.72896    1.000
    Si3274   Si       0.57055    0.42314    0.70644    1.000
    N3275    N        0.57068    0.46086    0.63432    1.000
    Si3276   Si       0.55163    0.49313    0.73801    1.000
    Si3277   Si       0.54469    0.42668    0.63607    1.000
    N3278    N        0.55879    0.30953    0.80579    1.000
    Si3279   Si       0.52205    0.33033    0.79844    1.000
    N3280    N        0.52262    0.35501    0.76482    1.000
    Si3281   Si       0.55797    0.44656    0.79189    1.000
    N3282    N        0.54963    0.40419    0.80051    1.000
    N3283    N        0.56288    0.46378    0.82998    1.000
    N3284    N        0.52810    0.46859    0.76764    1.000
    Si3285   Si       0.52532    0.47355    0.84940    1.000
    Si3286   Si       0.52215    0.39676    0.76898    1.000
    N3287    N        0.54505    0.30136    0.87370    1.000
    Si3288   Si       0.54550    0.28211    0.97855    1.000
    Si3289   Si       0.55188    0.27622    0.90871    1.000
    N3290    N        0.55546    0.37998    0.91896    1.000
    N3291    N        0.56943    0.29455    0.94409    1.000
    Si3292   Si       0.51558    0.36468    0.92374    1.000
    N3293    N        0.57199    0.38926    0.98531    1.000
    N3294    N        0.53298    0.43374    0.95214    1.000
    N3295    N        0.51645    0.44091    0.87943    1.000
    Si3296   Si       0.56892    0.40918    0.94749    1.000
    Si3297   Si       0.52774    0.44621    0.99388    1.000
    N3298    N        0.54594    0.59140    0.05816    1.000
    Si3299   Si       0.54929    0.59956    0.10277    1.000
    Si3300   Si       0.52790    0.55413    0.04035    1.000
    N3301    N        0.57275    0.56289    0.11132    1.000
    N3302    N        0.53229    0.54834    0.99528    1.000
    N3303    N        0.57075    0.52837    0.04221    1.000
    Si3304   Si       0.57440    0.54068    0.00041    1.000
    N3305    N        0.54098    0.62670    0.00990    1.000
    N3306    N        0.56654    0.63973    0.10059    1.000
    Si3307   Si       0.54181    0.67273    0.08402    1.000
    Si3308   Si       0.54853    0.69614    0.02440    1.000
    N3309    N        0.56269    0.74101    0.02705    1.000
    Si3310   Si       0.52180    0.74831    0.04670    1.000
    N3311    N        0.57488    0.68445    0.05715    1.000
    N3312    N        0.52087    0.68894    0.99495    1.000
    N3313    N        0.56496    0.52559    0.18141    1.000
    Si3314   Si       0.57060    0.56219    0.20123    1.000
    Si3315   Si       0.55614    0.53264    0.13887    1.000
    N3316    N        0.55200    0.60125    0.17765    1.000
    N3317    N        0.53689    0.57206    0.22735    1.000
    Si3318   Si       0.52895    0.71940    0.21138    1.000
    N3319    N        0.53587    0.69887    0.11941    1.000
    Si3320   Si       0.56596    0.71797    0.14291    1.000
    N3321    N        0.56063    0.70668    0.18381    1.000
    N3322    N        0.55711    0.59834    0.32197    1.000
    N3323    N        0.55197    0.54436    0.28148    1.000
    Si3324   Si       0.53574    0.63020    0.30420    1.000
    Si3325   Si       0.51923    0.56655    0.26692    1.000
    N3326    N        0.54483    0.54916    0.36806    1.000
    Si3327   Si       0.57656    0.57682    0.35641    1.000
    N3328    N        0.55982    0.65651    0.27849    1.000
    Si3329   Si       0.54730    0.69741    0.27425    1.000
    N3330    N        0.53669    0.71639    0.31102    1.000
    Si3331   Si       0.54222    0.69035    0.34539    1.000
    N3332    N        0.57236    0.71753    0.24655    1.000
    N3333    N        0.54512    0.60019    0.43624    1.000
    Si3334   Si       0.52142    0.58621    0.47581    1.000
    Si3335   Si       0.52474    0.50955    0.38376    1.000
    N3336    N        0.53503    0.70984    0.38412    1.000
    N3337    N        0.54456    0.72212    0.46902    1.000
    N3338    N        0.55786    0.65034    0.48609    1.000
    Si3339   Si       0.55318    0.68115    0.45607    1.000
    Si3340   Si       0.57467    0.75207    0.47374    1.000
    Si3341   Si       0.57765    0.70574    0.39181    1.000
    N3342    N        0.54892    0.52073    0.52991    1.000
    N3343    N        0.52666    0.62886    0.60059    1.000
    N3344    N        0.56366    0.57981    0.49471    1.000
    N3345    N        0.56856    0.56968    0.61464    1.000
    Si3346   Si       0.52097    0.50720    0.49891    1.000
    Si3347   Si       0.53168    0.58967    0.61927    1.000
    Si3348   Si       0.52384    0.65648    0.51529    1.000
    N3349    N        0.54393    0.69537    0.60333    1.000
    N3350    N        0.55637    0.67288    0.54228    1.000
    Si3351   Si       0.52693    0.69837    0.56327    1.000
    Si3352   Si       0.56264    0.65458    0.60107    1.000
    Si3353   Si       0.57010    0.56386    0.65847    1.000
    N3354    N        0.53886    0.59159    0.66423    1.000
    N3355    N        0.52559    0.52455    0.71810    1.000
    Si3356   Si       0.55846    0.62798    0.67775    1.000
    Si3357   Si       0.56646    0.72865    0.62192    1.000
    N3358    N        0.52682    0.72586    0.70681    1.000
    N3359    N        0.53036    0.65595    0.69091    1.000
    Si3360   Si       0.53358    0.68521    0.72322    1.000
    Si3361   Si       0.57085    0.73291    0.70305    1.000
    Si3362   Si       0.54459    0.54275    0.84279    1.000
    N3363    N        0.54109    0.56906    0.77110    1.000
    Si3364   Si       0.52718    0.59438    0.80465    1.000
    N3365    N        0.54741    0.62408    0.82946    1.000
    N3366    N        0.52193    0.51249    0.86308    1.000
    N3367    N        0.53607    0.67978    0.76746    1.000
    N3368    N        0.56567    0.71725    0.84049    1.000
    Si3369   Si       0.52758    0.64454    0.86198    1.000
    Si3370   Si       0.52355    0.71627    0.84658    1.000
    N3371    N        0.56570    0.56661    0.87316    1.000
    Si3372   Si       0.54375    0.58828    0.90408    1.000
    N3373    N        0.57045    0.60852    0.93060    1.000
    N3374    N        0.51931    0.55859    0.92354    1.000
    N3375    N        0.54398    0.73524    0.95415    1.000
    Si3376   Si       0.55632    0.65024    0.92979    1.000
    N3377    N        0.55096    0.66882    0.89150    1.000
    Si3378   Si       0.56018    0.84518    0.06202    1.000
    Si3379   Si       0.55009    0.78913    0.10647    1.000
    Si3380   Si       0.53274    0.85547    0.00554    1.000
    N3381    N        0.57310    0.84875    0.02087    1.000
    N3382    N        0.51684    0.85267    0.04821    1.000
    N3383    N        0.57432    0.80631    0.07356    1.000
    N3384    N        0.51467    0.77100    0.08430    1.000
    N3385    N        0.57730    0.87833    0.08389    1.000
    N3386    N        0.57066    0.99736    0.04473    1.000
    Si3387   Si       0.55859    0.95896    0.05868    1.000
    N3388    N        0.56976    0.94346    0.10173    1.000
    Si3389   Si       0.52696    0.95076    0.11419    1.000
    N3390    N        0.51841    0.96466    0.07463    1.000
    Si3391   Si       0.56443    0.90118    0.11874    1.000
    Si3392   Si       0.56864    0.84018    0.15510    1.000
    N3393    N        0.53853    0.82519    0.12680    1.000
    N3394    N        0.55120    0.83238    0.19349    1.000
    Si3395   Si       0.55501    0.79253    0.21171    1.000
    N3396    N        0.52243    0.76192    0.21656    1.000
    N3397    N        0.56885    0.76063    0.13410    1.000
    Si3398   Si       0.52158    0.86242    0.20144    1.000
    Si3399   Si       0.54086    0.99780    0.17272    1.000
    N3400    N        0.52124    0.90608    0.19669    1.000
    N3401    N        0.56303    0.96097    0.19111    1.000
    Si3402   Si       0.54481    0.93412    0.21832    1.000
    N3403    N        0.52145    0.90865    0.12645    1.000
    N3404    N        0.56212    0.85764    0.28672    1.000
    N3405    N        0.55383    0.79967    0.31888    1.000
    N3406    N        0.56890    0.79062    0.25364    1.000
    Si3407   Si       0.52581    0.80039    0.35155    1.000
    Si3408   Si       0.57531    0.81605    0.28705    1.000
    Si3409   Si       0.57540    0.87912    0.32104    1.000
    N3410    N        0.54016    0.88509    0.34617    1.000
    N3411    N        0.54734    0.96869    0.31662    1.000
    Si3412   Si       0.54781    0.93560    0.28088    1.000
    N3413    N        0.53030    0.95988    0.24956    1.000
    N3414    N        0.57171    0.91675    0.24577    1.000
    Si3415   Si       0.51776    0.99901    0.31114    1.000
    N3416    N        0.57206    0.86104    0.39510    1.000
    N3417    N        0.55077    0.79774    0.38555    1.000
    Si3418   Si       0.53782    0.83564    0.40376    1.000
    N3419    N        0.53444    0.83308    0.44729    1.000
    Si3420   Si       0.56868    0.81354    0.46435    1.000
    Si3421   Si       0.55895    0.98445    0.46997    1.000
    N3422    N        0.56766    0.95237    0.44071    1.000
    N3423    N        0.52007    0.89592    0.47421    1.000
    Si3424   Si       0.53037    0.93154    0.44832    1.000
    Si3425   Si       0.55630    0.90056    0.38262    1.000
    N3426    N        0.52433    0.91143    0.41186    1.000
    N3427    N        0.54905    0.86389    0.53566    1.000
    Si3428   Si       0.54757    0.76909    0.54067    1.000
    N3429    N        0.56315    0.78644    0.50076    1.000
    N3430    N        0.52629    0.80321    0.55718    1.000
    N3431    N        0.54199    0.76508    0.61754    1.000
    Si3432   Si       0.57488    0.87196    0.56863    1.000
    N3433    N        0.55787    0.88400    0.60584    1.000
    Si3434   Si       0.54374    0.89737    0.50916    1.000
    N3435    N        0.56181    0.95785    0.59497    1.000
    Si3436   Si       0.52907    0.95767    0.56755    1.000
    N3437    N        0.52501    0.92516    0.53823    1.000
    N3438    N        0.52489    0.99997    0.55663    1.000
    N3439    N        0.57355    0.97559    0.51157    1.000
    Si3440   Si       0.55933    0.87219    0.70032    1.000
    Si3441   Si       0.55902    0.78449    0.65127    1.000
    Si3442   Si       0.55770    0.80152    0.71804    1.000
    N3443    N        0.52949    0.86584    0.67034    1.000
    N3444    N        0.53408    0.78811    0.68553    1.000
    Si3445   Si       0.54260    0.85200    0.63068    1.000
    N3446    N        0.57324    0.82084    0.63617    1.000
    Si3447   Si       0.55772    0.92457    0.73286    1.000
    N3448    N        0.52255    0.94818    0.72230    1.000
    Si3449   Si       0.53009    0.99321    0.72034    1.000
    N3450    N        0.54534    0.88349    0.74067    1.000
    Si3451   Si       0.55129    0.85370    0.77201    1.000
    Si3452   Si       0.56639    0.80637    0.85302    1.000
    N3453    N        0.53861    0.81742    0.75384    1.000
    N3454    N        0.52468    0.85513    0.80523    1.000
    N3455    N        0.52091    0.80521    0.85217    1.000
    N3456    N        0.57613    0.84688    0.85905    1.000
    N3457    N        0.56338    0.90651    0.81641    1.000
    Si3458   Si       0.56737    0.94707    0.80487    1.000
    N3459    N        0.52942    0.97151    0.81003    1.000
    Si3460   Si       0.52233    0.89057    0.83052    1.000
    N3461    N        0.57899    0.94798    0.76230    1.000
    Si3462   Si       0.53093    0.81034    0.94645    1.000
    Si3463   Si       0.55972    0.86614    0.89625    1.000
    N3464    N        0.53105    0.84732    0.92262    1.000
    N3465    N        0.56891    0.77990    0.88612    1.000
    N3466    N        0.57095    0.79664    0.95850    1.000
    Si3467   Si       0.52415    0.77896    0.88482    1.000
    Si3468   Si       0.56573    0.75770    0.98377    1.000
    N3469    N        0.52185    0.88252    0.87313    1.000
    N3470    N        0.57006    0.90602    0.91667    1.000
    N3471    N        0.56846    0.95390    0.97721    1.000
    N3472    N        0.53209    0.97180    0.92930    1.000
    Si3473   Si       0.53219    0.97747    0.97119    1.000
    Si3474   Si       0.56661    0.94894    0.92159    1.000
    Si3475   Si       0.52691    0.98363    0.88830    1.000
    N3476    N        0.56308    0.96093    0.87835    1.000
    N3477    N        0.53265    0.89344    0.98672    1.000
    Si3478   Si       0.57097    0.91471    0.99434    1.000
    Si3479   Si       0.58683    0.06597    0.06798    1.000
    N3480    N        0.59356    0.10907    0.06088    1.000
    N3481    N        0.62306    0.04874    0.05165    1.000
    Si3482   Si       0.62590    0.13035    0.03959    1.000
    Si3483   Si       0.61197    0.01041    0.03083    1.000
    Si3484   Si       0.59666    0.13643    0.09593    1.000
    N3485    N        0.59468    0.13827    0.00752    1.000
    N3486    N        0.63160    0.15513    0.07806    1.000
    Si3487   Si       0.61151    0.24138    0.10806    1.000
    N3488    N        0.59902    0.20750    0.02410    1.000
    Si3489   Si       0.62849    0.19202    0.04985    1.000
    N3490    N        0.58422    0.25156    0.07351    1.000
    Si3491   Si       0.59545    0.25273    0.02983    1.000
    N3492    N        0.60303    0.09248    0.19034    1.000
    Si3493   Si       0.60352    0.02893    0.12861    1.000
    N3494    N        0.60238    0.11657    0.13304    1.000
    Si3495   Si       0.60115    0.07002    0.22538    1.000
    N3496    N        0.59437    0.02861    0.23885    1.000
    Si3497   Si       0.57630    0.11937    0.16767    1.000
    N3498    N        0.58199    0.00766    0.15945    1.000
    Si3499   Si       0.63484    0.09433    0.15792    1.000
    Si3500   Si       0.61035    0.24741    0.21797    1.000
    N3501    N        0.60052    0.20452    0.13084    1.000
    N3502    N        0.60975    0.21080    0.23813    1.000
    N3503    N        0.59436    0.05061    0.30316    1.000
    N3504    N        0.60456    0.08658    0.35568    1.000
    N3505    N        0.58286    0.12088    0.29780    1.000
    Si3506   Si       0.63397    0.05068    0.28742    1.000
    Si3507   Si       0.57791    0.08725    0.32354    1.000
    Si3508   Si       0.61562    0.14832    0.29554    1.000
    N3509    N        0.59574    0.18740    0.30198    1.000
    Si3510   Si       0.57598    0.19919    0.26500    1.000
    N3511    N        0.60758    0.06709    0.41934    1.000
    Si3512   Si       0.59034    0.05888    0.45910    1.000
    Si3513   Si       0.60241    0.10189    0.39656    1.000
    N3514    N        0.62481    0.06811    0.48309    1.000
    Si3515   Si       0.62044    0.02405    0.41877    1.000
    N3516    N        0.58489    0.01594    0.45262    1.000
    Si3517   Si       0.58738    0.16021    0.40502    1.000
    N3518    N        0.58909    0.18104    0.44313    1.000
    N3519    N        0.62368    0.14046    0.39432    1.000
    Si3520   Si       0.62725    0.17487    0.46483    1.000
    N3521    N        0.61689    0.13490    0.48218    1.000
    N3522    N        0.59063    0.03762    0.55046    1.000
    N3523    N        0.58563    0.09750    0.59185    1.000
    Si3524   Si       0.59582    0.07993    0.55118    1.000
    Si3525   Si       0.62941    0.02091    0.55741    1.000
    Si3526   Si       0.60578    0.12740    0.61565    1.000
    N3527    N        0.63188    0.10161    0.53953    1.000
    Si3528   Si       0.58200    0.13406    0.50785    1.000
    N3529    N        0.59842    0.22551    0.56186    1.000
    Si3530   Si       0.59991    0.20303    0.52634    1.000
    N3531    N        0.58549    0.16731    0.61080    1.000
    N3532    N        0.58583    0.16413    0.54158    1.000
    N3533    N        0.60027    0.11723    0.65670    1.000
    Si3534   Si       0.59345    0.04320    0.71155    1.000
    N3535    N        0.63503    0.03504    0.69629    1.000
    Si3536   Si       0.58951    0.19218    0.64760    1.000
    N3537    N        0.62857    0.17838    0.66037    1.000
    N3538    N        0.61097    0.15281    0.72130    1.000
    Si3539   Si       0.62700    0.14177    0.68211    1.000
    N3540    N        0.59056    0.23780    0.64747    1.000
    N3541    N        0.60757    0.06392    0.81486    1.000
    Si3542   Si       0.61130    0.05224    0.85711    1.000
    Si3543   Si       0.61812    0.10691    0.81665    1.000
    Si3544   Si       0.62278    0.04790    0.77783    1.000
    N3545    N        0.59445    0.06882    0.74784    1.000
    N3546    N        0.58959    0.13330    0.83308    1.000
    Si3547   Si       0.62487    0.24791    0.85093    1.000
    Si3548   Si       0.60914    0.17528    0.84012    1.000
    N3549    N        0.59386    0.21773    0.84755    1.000
    N3550    N        0.58834    0.24559    0.79054    1.000
    Si3551   Si       0.61145    0.14757    0.76500    1.000
    Si3552   Si       0.62419    0.22212    0.78342    1.000
    N3553    N        0.61844    0.17938    0.79472    1.000
    Si3554   Si       0.63555    0.03942    0.96852    1.000
    N3555    N        0.59456    0.01880    0.87435    1.000
    N3556    N        0.58486    0.08085    0.87386    1.000
    Si3557   Si       0.58437    0.09097    0.94718    1.000
    N3558    N        0.62548    0.07931    0.95268    1.000
    N3559    N        0.60995    0.01058    0.98764    1.000
    N3560    N        0.57817    0.12747    0.92740    1.000
    Si3561   Si       0.61007    0.15599    0.92149    1.000
    N3562    N        0.61816    0.17909    0.95836    1.000
    N3563    N        0.58959    0.16883    0.88284    1.000
    Si3564   Si       0.59033    0.17763    0.99210    1.000
    N3565    N        0.58709    0.34421    0.03693    1.000
    Si3566   Si       0.60397    0.36437    0.00315    1.000
    Si3567   Si       0.59360    0.37834    0.06275    1.000
    N3568    N        0.59843    0.37836    0.10622    1.000
    N3569    N        0.63382    0.27025    0.01488    1.000
    N3570    N        0.62390    0.39152    0.03407    1.000
    N3571    N        0.60905    0.46699    0.05861    1.000
    Si3572   Si       0.63049    0.43521    0.03551    1.000
    N3573    N        0.63508    0.45576    0.99723    1.000
    N3574    N        0.58205    0.27006    0.13072    1.000
    N3575    N        0.61032    0.31366    0.18322    1.000
    Si3576   Si       0.59670    0.31545    0.22377    1.000
    Si3577   Si       0.57505    0.29046    0.16873    1.000
    N3578    N        0.60746    0.41261    0.22748    1.000
    N3579    N        0.62108    0.46609    0.12489    1.000
    N3580    N        0.62397    0.41452    0.16199    1.000
    Si3581   Si       0.58894    0.41593    0.18769    1.000
    Si3582   Si       0.57944    0.45934    0.13120    1.000
    Si3583   Si       0.63219    0.38740    0.13010    1.000
    N3584    N        0.57139    0.45363    0.17619    1.000
    N3585    N        0.60399    0.37387    0.31111    1.000
    N3586    N        0.58770    0.27480    0.33364    1.000
    Si3587   Si       0.59888    0.33710    0.29022    1.000
    Si3588   Si       0.62549    0.29421    0.34081    1.000
    N3589    N        0.61201    0.34614    0.25093    1.000
    N3590    N        0.63490    0.31758    0.30624    1.000
    N3591    N        0.61668    0.28154    0.24326    1.000
    Si3592   Si       0.58542    0.41147    0.31014    1.000
    N3593    N        0.61718    0.43679    0.29014    1.000
    Si3594   Si       0.59239    0.44266    0.25395    1.000
    N3595    N        0.58564    0.49528    0.30694    1.000
    N3596    N        0.58002    0.42973    0.34968    1.000
    N3597    N        0.62360    0.32130    0.37487    1.000
    N3598    N        0.62242    0.32983    0.45248    1.000
    Si3599   Si       0.58462    0.33108    0.38999    1.000
    Si3600   Si       0.60810    0.28819    0.44616    1.000
    Si3601   Si       0.61402    0.37388    0.44231    1.000
    N3602    N        0.58778    0.37408    0.40292    1.000
    N3603    N        0.60488    0.27440    0.48634    1.000
    Si3604   Si       0.63262    0.33884    0.49347    1.000
    N3605    N        0.63468    0.38134    0.48623    1.000
    N3606    N        0.57773    0.29711    0.41691    1.000
    N3607    N        0.63386    0.43623    0.38867    1.000
    N3608    N        0.60026    0.48387    0.44201    1.000
    N3609    N        0.60082    0.49428    0.37214    1.000
    Si3610   Si       0.59577    0.41509    0.38865    1.000
    Si3611   Si       0.61771    0.48630    0.48173    1.000
    Si3612   Si       0.59626    0.36037    0.55684    1.000
    N3613    N        0.60572    0.33279    0.52493    1.000
    N3614    N        0.61851    0.35151    0.59463    1.000
    Si3615   Si       0.59991    0.28720    0.52636    1.000
    N3616    N        0.62648    0.28208    0.56078    1.000
    Si3617   Si       0.63447    0.31185    0.59038    1.000
    N3618    N        0.60835    0.39920    0.54911    1.000
    Si3619   Si       0.59100    0.42721    0.57821    1.000
    N3620    N        0.62664    0.44575    0.59545    1.000
    Si3621   Si       0.62972    0.41413    0.51341    1.000
    N3622    N        0.60725    0.44660    0.49871    1.000
    Si3623   Si       0.60775    0.47905    0.61729    1.000
    Si3624   Si       0.57720    0.36487    0.66647    1.000
    N3625    N        0.62075    0.37069    0.66279    1.000
    Si3626   Si       0.63607    0.37626    0.62329    1.000
    Si3627   Si       0.62390    0.26557    0.65839    1.000
    N3628    N        0.61019    0.29085    0.69044    1.000
    N3629    N        0.61082    0.40970    0.71996    1.000
    N3630    N        0.63691    0.49048    0.64667    1.000
    N3631    N        0.61198    0.29138    0.85224    1.000
    N3632    N        0.60995    0.30412    0.75673    1.000
    N3633    N        0.61306    0.37565    0.78266    1.000
    Si3634   Si       0.57804    0.28370    0.77566    1.000
    Si3635   Si       0.63433    0.34044    0.77002    1.000
    N3636    N        0.57596    0.35820    0.85177    1.000
    Si3637   Si       0.57490    0.31364    0.84461    1.000
    Si3638   Si       0.58440    0.38236    0.81611    1.000
    Si3639   Si       0.60424    0.45886    0.83897    1.000
    Si3640   Si       0.62320    0.41270    0.76277    1.000
    Si3641   Si       0.61318    0.48840    0.77917    1.000
    N3642    N        0.59737    0.44862    0.77221    1.000
    N3643    N        0.60759    0.41648    0.83103    1.000
    N3644    N        0.62904    0.48955    0.82214    1.000
    N3645    N        0.61130    0.33194    0.90485    1.000
    Si3646   Si       0.61080    0.31163    0.94432    1.000
    Si3647   Si       0.58797    0.36498    0.89317    1.000
    N3648    N        0.61956    0.33829    0.97533    1.000
    N3649    N        0.59753    0.44122    0.94374    1.000
    N3650    N        0.61574    0.39872    0.89272    1.000
    Si3651   Si       0.62665    0.43574    0.91211    1.000
    Si3652   Si       0.59943    0.46750    0.97854    1.000
    N3653    N        0.62136    0.46620    0.88132    1.000
    N3654    N        0.61107    0.58882    0.05572    1.000
    Si3655   Si       0.59384    0.55195    0.07566    1.000
    N3656    N        0.62887    0.52697    0.08953    1.000
    Si3657   Si       0.57568    0.60774    0.02664    1.000
    Si3658   Si       0.63775    0.59527    0.01494    1.000
    N3659    N        0.61131    0.75074    0.07945    1.000
    N3660    N        0.61009    0.63765    0.01605    1.000
    Si3661   Si       0.61507    0.66591    0.04804    1.000
    Si3662   Si       0.59454    0.72420    0.05077    1.000
    N3663    N        0.62654    0.70420    0.02900    1.000
    Si3664   Si       0.63148    0.72895    0.11177    1.000
    Si3665   Si       0.59241    0.61861    0.18571    1.000
    N3666    N        0.60798    0.58000    0.19721    1.000
    Si3667   Si       0.60434    0.65614    0.11604    1.000
    N3668    N        0.61588    0.63289    0.15206    1.000
    Si3669   Si       0.58899    0.69421    0.21303    1.000
    N3670    N        0.59082    0.65061    0.21813    1.000
    N3671    N        0.60244    0.69807    0.12524    1.000
    N3672    N        0.62921    0.70526    0.21145    1.000
    N3673    N        0.60884    0.56085    0.32988    1.000
    Si3674   Si       0.62168    0.52028    0.31420    1.000
    N3675    N        0.60544    0.59974    0.27262    1.000
    Si3676   Si       0.58164    0.57200    0.29456    1.000
    N3677    N        0.63271    0.53546    0.27452    1.000
    N3678    N        0.63406    0.63100    0.33776    1.000
    Si3679   Si       0.59515    0.64017    0.26002    1.000
    N3680    N        0.58242    0.67615    0.36198    1.000
    N3681    N        0.63101    0.75433    0.26035    1.000
    N3682    N        0.63110    0.66196    0.27051    1.000
    Si3683   Si       0.61097    0.64383    0.37100    1.000
    Si3684   Si       0.59209    0.75576    0.24236    1.000
    Si3685   Si       0.58753    0.50949    0.41045    1.000
    N3686    N        0.60864    0.61862    0.45025    1.000
    N3687    N        0.59932    0.55088    0.41314    1.000
    Si3688   Si       0.58502    0.59131    0.42308    1.000
    N3689    N        0.59090    0.60744    0.38216    1.000
    Si3690   Si       0.58516    0.61649    0.48696    1.000
    N3691    N        0.61361    0.74771    0.49339    1.000
    N3692    N        0.63752    0.67727    0.47210    1.000
    N3693    N        0.60080    0.74026    0.37973    1.000
    N3694    N        0.58497    0.68351    0.42970    1.000
    Si3695   Si       0.61976    0.65974    0.43826    1.000
    Si3696   Si       0.59898    0.54963    0.59112    1.000
    N3697    N        0.60177    0.56637    0.55157    1.000
    N3698    N        0.61720    0.62771    0.51811    1.000
    Si3699   Si       0.57942    0.54771    0.51866    1.000
    N3700    N        0.59148    0.50681    0.58945    1.000
    Si3701   Si       0.63314    0.59097    0.54063    1.000
    N3702    N        0.60878    0.52545    0.49903    1.000
    N3703    N        0.60051    0.64504    0.58226    1.000
    N3704    N        0.61847    0.69908    0.53828    1.000
    Si3705   Si       0.59818    0.66027    0.54270    1.000
    N3706    N        0.60759    0.72045    0.60865    1.000
    Si3707   Si       0.61917    0.73009    0.56852    1.000
    N3708    N        0.58090    0.52186    0.65918    1.000
    Si3709   Si       0.61653    0.59490    0.71338    1.000
    Si3710   Si       0.62511    0.53437    0.65792    1.000
    N3711    N        0.60765    0.57444    0.67728    1.000
    N3712    N        0.58991    0.62766    0.70698    1.000
    N3713    N        0.63456    0.54981    0.61603    1.000
    N3714    N        0.57721    0.64466    0.64124    1.000
    N3715    N        0.57789    0.69344    0.72322    1.000
    N3716    N        0.62693    0.68699    0.67470    1.000
    N3717    N        0.58484    0.74797    0.66320    1.000
    Si3718   Si       0.60758    0.66723    0.70788    1.000
    Si3719   Si       0.60327    0.56629    0.84914    1.000
    N3720    N        0.61720    0.60361    0.83073    1.000
    N3721    N        0.61060    0.58043    0.75559    1.000
    Si3722   Si       0.62205    0.61117    0.78445    1.000
    N3723    N        0.58168    0.51140    0.76149    1.000
    Si3724   Si       0.58135    0.55348    0.77539    1.000
    N3725    N        0.58098    0.54508    0.81851    1.000
    Si3726   Si       0.58752    0.63891    0.82631    1.000
    N3727    N        0.59537    0.64600    0.78463    1.000
    N3728    N        0.60763    0.71466    0.78784    1.000
    Si3729   Si       0.59771    0.74193    0.82075    1.000
    N3730    N        0.60821    0.66153    0.85822    1.000
    N3731    N        0.62632    0.74723    0.85394    1.000
    Si3732   Si       0.57863    0.68284    0.76813    1.000
    N3733    N        0.63279    0.54274    0.86943    1.000
    N3734    N        0.59910    0.51147    0.97995    1.000
    Si3735   Si       0.60467    0.59314    0.95195    1.000
    N3736    N        0.62831    0.56026    0.93959    1.000
    N3737    N        0.59350    0.58016    0.99408    1.000
    N3738    N        0.58564    0.67281    0.95555    1.000
    Si3739   Si       0.62001    0.65821    0.97780    1.000
    N3740    N        0.59542    0.72129    0.90496    1.000
    Si3741   Si       0.58163    0.69381    0.87301    1.000
    N3742    N        0.60352    0.73995    0.97274    1.000
    Si3743   Si       0.58266    0.71482    0.94482    1.000
    Si3744   Si       0.61584    0.79337    0.06870    1.000
    Si3745   Si       0.61531    0.84282    0.01012    1.000
    N3746    N        0.62592    0.80316    0.02959    1.000
    N3747    N        0.62942    0.88020    0.03187    1.000
    Si3748   Si       0.61207    0.95362    0.11060    1.000
    Si3749   Si       0.60409    0.90292    0.06036    1.000
    N3750    N        0.62388    0.99530    0.10922    1.000
    N3751    N        0.57514    0.92593    0.03583    1.000
    N3752    N        0.63208    0.92657    0.08383    1.000
    N3753    N        0.58768    0.76771    0.19938    1.000
    Si3754   Si       0.60453    0.77331    0.15956    1.000
    N3755    N        0.60462    0.81562    0.15064    1.000
    N3756    N        0.57915    0.88125    0.15360    1.000
    Si3757   Si       0.61854    0.89910    0.16602    1.000
    N3758    N        0.61467    0.93790    0.15166    1.000
    Si3759   Si       0.60117    0.97318    0.17651    1.000
    Si3760   Si       0.62297    0.99818    0.24181    1.000
    N3761    N        0.61954    0.81644    0.29214    1.000
    N3762    N        0.60906    0.86234    0.34035    1.000
    Si3763   Si       0.58313    0.95252    0.33558    1.000
    Si3764   Si       0.60804    0.91825    0.27032    1.000
    N3765    N        0.61885    0.97647    0.33017    1.000
    N3766    N        0.62084    0.96022    0.26414    1.000
    N3767    N        0.58377    0.91920    0.30695    1.000
    N3768    N        0.63360    0.88383    0.27825    1.000
    Si3769   Si       0.58783    0.77884    0.39771    1.000
    N3770    N        0.61926    0.80750    0.39161    1.000
    N3771    N        0.59722    0.84683    0.46747    1.000
    Si3772   Si       0.61013    0.84823    0.38128    1.000
    N3773    N        0.58062    0.77818    0.44041    1.000
    Si3774   Si       0.60613    0.88938    0.46268    1.000
    N3775    N        0.57738    0.93682    0.37611    1.000
    N3776    N        0.61595    0.90889    0.42418    1.000
    N3777    N        0.63077    0.97433    0.40914    1.000
    Si3778   Si       0.59824    0.94728    0.41301    1.000
    N3779    N        0.60710    0.84515    0.58130    1.000
    Si3780   Si       0.60597    0.78166    0.52039    1.000
    N3781    N        0.63152    0.81763    0.52045    1.000
    N3782    N        0.58811    0.76138    0.55595    1.000
    Si3783   Si       0.58269    0.99306    0.61225    1.000
    N3784    N        0.59531    0.90995    0.56296    1.000
    N3785    N        0.62062    0.99591    0.59010    1.000
    Si3786   Si       0.59384    0.93815    0.52447    1.000
    Si3787   Si       0.58236    0.92072    0.60580    1.000
    N3788    N        0.58377    0.90828    0.49474    1.000
    Si3789   Si       0.61172    0.82861    0.62067    1.000
    N3790    N        0.63046    0.79050    0.62116    1.000
    N3791    N        0.58352    0.83689    0.70658    1.000
    Si3792   Si       0.62357    0.83713    0.69110    1.000
    Si3793   Si       0.62171    0.77526    0.73002    1.000
    Si3794   Si       0.62635    0.76624    0.65773    1.000
    N3795    N        0.57914    0.76614    0.73056    1.000
    N3796    N        0.62649    0.85648    0.65108    1.000
    N3797    N        0.62923    0.79295    0.69025    1.000
    N3798    N        0.60945    0.91866    0.63668    1.000
    Si3799   Si       0.62690    0.99840    0.67553    1.000
    Si3800   Si       0.61497    0.93339    0.67871    1.000
    N3801    N        0.58285    0.91111    0.69693    1.000
    N3802    N        0.62190    0.96756    0.70556    1.000
    N3803    N        0.58889    0.99490    0.65500    1.000
    Si3804   Si       0.60274    0.97934    0.74219    1.000
    N3805    N        0.59138    0.85170    0.79040    1.000
    Si3806   Si       0.60963    0.81221    0.79624    1.000
    N3807    N        0.58658    0.78368    0.81951    1.000
    Si3808   Si       0.58949    0.87300    0.82695    1.000
    N3809    N        0.63382    0.79592    0.76476    1.000
    N3810    N        0.62736    0.88713    0.84074    1.000
    N3811    N        0.59911    0.97012    0.82229    1.000
    Si3812   Si       0.60086    0.97773    0.86480    1.000
    N3813    N        0.62329    0.00580    0.77103    1.000
    N3814    N        0.63276    0.82972    0.97265    1.000
    Si3815   Si       0.60855    0.81366    0.93964    1.000
    N3816    N        0.59968    0.85107    0.91893    1.000
    Si3817   Si       0.60813    0.76110    0.89111    1.000
    N3818    N        0.63089    0.79122    0.91190    1.000
    N3819    N        0.60389    0.89535    0.97611    1.000
    Si3820   Si       0.60631    0.88970    0.93348    1.000
    N3821    N        0.60878    0.96245    0.92927    1.000
    Si3822   Si       0.60826    0.97071    0.97144    1.000
    N3823    N        0.66342    0.10829    0.03899    1.000
    Si3824   Si       0.66233    0.06530    0.03747    1.000
    N3825    N        0.68087    0.03161    0.09474    1.000
    N3826    N        0.66564    0.04741    0.99863    1.000
    Si3827   Si       0.68411    0.14453    0.03618    1.000
    Si3828   Si       0.66543    0.15664    0.10510    1.000
    N3829    N        0.65127    0.16911    0.02020    1.000
    Si3830   Si       0.67472    0.24974    0.09076    1.000
    N3831    N        0.64266    0.22437    0.07574    1.000
    Si3832   Si       0.67511    0.03220    0.13909    1.000
    N3833    N        0.66546    0.10593    0.19812    1.000
    N3834    N        0.66694    0.12424    0.13506    1.000
    N3835    N        0.68843    0.03111    0.21900    1.000
    Si3836   Si       0.65570    0.11497    0.24073    1.000
    N3837    N        0.63648    0.05308    0.14361    1.000
    N3838    N        0.66902    0.19049    0.13279    1.000
    N3839    N        0.68482    0.20097    0.23829    1.000
    N3840    N        0.63504    0.23559    0.18394    1.000
    N3841    N        0.64163    0.17074    0.18897    1.000
    Si3842   Si       0.67546    0.14334    0.17301    1.000
    Si3843   Si       0.64422    0.18365    0.22892    1.000
    Si3844   Si       0.63454    0.20022    0.15817    1.000
    N3845    N        0.66088    0.06244    0.31822    1.000
    N3846    N        0.65228    0.01253    0.27415    1.000
    Si3847   Si       0.64205    0.06364    0.35801    1.000
    N3848    N        0.63466    0.07786    0.25309    1.000
    Si3849   Si       0.65938    0.13626    0.36875    1.000
    N3850    N        0.64844    0.13866    0.32275    1.000
    Si3851   Si       0.68599    0.14342    0.29804    1.000
    N3852    N        0.66317    0.25151    0.29222    1.000
    Si3853   Si       0.68942    0.22077    0.27644    1.000
    N3854    N        0.68255    0.17294    0.37281    1.000
    N3855    N        0.69094    0.18641    0.30225    1.000
    N3856    N        0.63344    0.15018    0.25577    1.000
    N3857    N        0.67096    0.09180    0.37705    1.000
    Si3858   Si       0.65307    0.03730    0.48844    1.000
    N3859    N        0.65560    0.02279    0.44640    1.000
    N3860    N        0.63462    0.02603    0.37707    1.000
    N3861    N        0.68531    0.11995    0.49725    1.000
    N3862    N        0.67995    0.24556    0.48477    1.000
    Si3863   Si       0.66842    0.23848    0.44342    1.000
    Si3864   Si       0.68774    0.18697    0.41306    1.000
    N3865    N        0.65430    0.19663    0.43930    1.000
    Si3866   Si       0.65802    0.09571    0.57483    1.000
    N3867    N        0.65705    0.05251    0.57343    1.000
    N3868    N        0.64764    0.12322    0.60533    1.000
    Si3869   Si       0.64240    0.10508    0.49789    1.000
    N3870    N        0.69141    0.05220    0.50353    1.000
    N3871    N        0.64540    0.00901    0.52021    1.000
    Si3872   Si       0.67493    0.20849    0.50770    1.000
    N3873    N        0.66980    0.21812    0.54992    1.000
    N3874    N        0.65441    0.22185    0.60897    1.000
    Si3875   Si       0.63782    0.23997    0.57259    1.000
    N3876    N        0.63387    0.19677    0.50111    1.000
    N3877    N        0.68838    0.01981    0.74011    1.000
    Si3878   Si       0.67218    0.04801    0.70964    1.000
    N3879    N        0.66561    0.12442    0.67405    1.000
    N3880    N        0.68000    0.08649    0.72840    1.000
    Si3881   Si       0.66729    0.24608    0.71486    1.000
    N3882    N        0.69033    0.15347    0.73484    1.000
    Si3883   Si       0.65889    0.20538    0.64720    1.000
    Si3884   Si       0.67905    0.13630    0.63420    1.000
    N3885    N        0.65518    0.23804    0.67497    1.000
    Si3886   Si       0.67373    0.06945    0.83430    1.000
    N3887    N        0.65416    0.10847    0.84084    1.000
    Si3888   Si       0.67377    0.09719    0.77066    1.000
    N3889    N        0.66953    0.05763    0.79168    1.000
    N3890    N        0.63610    0.11579    0.77673    1.000
    N3891    N        0.65423    0.04934    0.86662    1.000
    N3892    N        0.65096    0.23770    0.81589    1.000
    N3893    N        0.65119    0.17720    0.85715    1.000
    N3894    N        0.64373    0.22170    0.74402    1.000
    Si3895   Si       0.67959    0.19429    0.74447    1.000
    Si3896   Si       0.67574    0.04081    0.90455    1.000
    Si3897   Si       0.65737    0.10608    0.93743    1.000
    N3898    N        0.65185    0.02113    0.93409    1.000
    N3899    N        0.68733    0.07853    0.92629    1.000
    N3900    N        0.64137    0.13033    0.90653    1.000
    N3901    N        0.65017    0.24121    0.88739    1.000
    N3902    N        0.67497    0.13886    0.96489    1.000
    Si3903   Si       0.67449    0.20849    0.87634    1.000
    Si3904   Si       0.66462    0.13753    0.87094    1.000
    Si3905   Si       0.65627    0.17679    0.97749    1.000
    N3906    N        0.67050    0.21761    0.97169    1.000
    N3907    N        0.66772    0.33713    0.04434    1.000
    Si3908   Si       0.66747    0.29620    0.03077    1.000
    N3909    N        0.68769    0.28507    0.06860    1.000
    N3910    N        0.69338    0.28079    0.99664    1.000
    Si3911   Si       0.67076    0.38116    0.03713    1.000
    N3912    N        0.67159    0.42413    0.04701    1.000
    N3913    N        0.67593    0.47263    0.09404    1.000
    Si3914   Si       0.69006    0.42782    0.08475    1.000
    N3915    N        0.68749    0.49688    0.03220    1.000
    N3916    N        0.66920    0.41333    0.12042    1.000
    N3917    N        0.69184    0.38270    0.99776    1.000
    Si3918   Si       0.63457    0.48445    0.09006    1.000
    Si3919   Si       0.67485    0.47422    0.99738    1.000
    Si3920   Si       0.66531    0.26216    0.16447    1.000
    N3921    N        0.65069    0.26111    0.12462    1.000
    Si3922   Si       0.64825    0.33104    0.17617    1.000
    N3923    N        0.65355    0.35206    0.13991    1.000
    N3924    N        0.67427    0.29895    0.18449    1.000
    N3925    N        0.66134    0.36125    0.20531    1.000
    Si3926   Si       0.63658    0.37977    0.23534    1.000
    Si3927   Si       0.65270    0.44552    0.14408    1.000
    N3928    N        0.66987    0.46464    0.17726    1.000
    Si3929   Si       0.68861    0.45467    0.21835    1.000
    Si3930   Si       0.68224    0.50533    0.18129    1.000
    Si3931   Si       0.64800    0.28907    0.27298    1.000
    N3932    N        0.66117    0.27663    0.36052    1.000
    N3933    N        0.68493    0.30455    0.25704    1.000
    N3934    N        0.66857    0.37686    0.34061    1.000
    Si3935   Si       0.64617    0.36632    0.30615    1.000
    Si3936   Si       0.68466    0.26144    0.32871    1.000
    N3937    N        0.66412    0.38223    0.26955    1.000
    N3938    N        0.64885    0.48923    0.32767    1.000
    Si3939   Si       0.65459    0.45980    0.29450    1.000
    N3940    N        0.66052    0.46901    0.24895    1.000
    N3941    N        0.68966    0.43796    0.30426    1.000
    Si3942   Si       0.65457    0.30018    0.39817    1.000
    N3943    N        0.64324    0.26993    0.42691    1.000
    N3944    N        0.68770    0.32423    0.41146    1.000
    Si3945   Si       0.68937    0.36492    0.42394    1.000
    N3946    N        0.69435    0.45709    0.37931    1.000
    Si3947   Si       0.69368    0.47315    0.46682    1.000
    Si3948   Si       0.64384    0.47985    0.37306    1.000
    N3949    N        0.65944    0.49831    0.47649    1.000
    N3950    N        0.68168    0.43873    0.44622    1.000
    N3951    N        0.65197    0.38681    0.42572    1.000
    Si3952   Si       0.67031    0.40262    0.47006    1.000
    Si3953   Si       0.67192    0.42352    0.40476    1.000
    N3954    N        0.67766    0.32170    0.58659    1.000
    N3955    N        0.66905    0.32018    0.50564    1.000
    Si3956   Si       0.68411    0.28825    0.61543    1.000
    N3957    N        0.67195    0.39427    0.60311    1.000
    N3958    N        0.67142    0.42344    0.51002    1.000
    Si3959   Si       0.67147    0.43844    0.59963    1.000
    N3960    N        0.64154    0.28862    0.62674    1.000
    N3961    N        0.67512    0.28899    0.71819    1.000
    N3962    N        0.64447    0.34876    0.72963    1.000
    Si3963   Si       0.63603    0.30780    0.72032    1.000
    Si3964   Si       0.68012    0.43616    0.72913    1.000
    N3965    N        0.67588    0.40053    0.70458    1.000
    Si3966   Si       0.63734    0.37966    0.70143    1.000
    N3967    N        0.69144    0.45066    0.63647    1.000
    Si3968   Si       0.67441    0.47894    0.66357    1.000
    N3969    N        0.66364    0.46830    0.70476    1.000
    N3970    N        0.66828    0.32142    0.78854    1.000
    N3971    N        0.64368    0.35389    0.84951    1.000
    Si3972   Si       0.67413    0.49747    0.80874    1.000
    N3973    N        0.68336    0.49671    0.85491    1.000
    N3974    N        0.66431    0.42347    0.76713    1.000
    N3975    N        0.67329    0.41274    0.83874    1.000
    N3976    N        0.65394    0.49458    0.76619    1.000
    Si3977   Si       0.64240    0.50093    0.86445    1.000
    Si3978   Si       0.69094    0.42568    0.80113    1.000
    Si3979   Si       0.63712    0.39609    0.85451    1.000
    Si3980   Si       0.63963    0.31911    0.87330    1.000
    N3981    N        0.64134    0.28064    0.94574    1.000
    Si3982   Si       0.66717    0.27370    0.91173    1.000
    N3983    N        0.67695    0.30592    0.88520    1.000
    Si3984   Si       0.65771    0.25905    0.97940    1.000
    N3985    N        0.66750    0.44165    0.92113    1.000
    N3986    N        0.66865    0.50684    0.96666    1.000
    N3987    N        0.67149    0.60953    0.04119    1.000
    Si3988   Si       0.66405    0.54415    0.10943    1.000
    N3989    N        0.65796    0.58895    0.11117    1.000
    Si3990   Si       0.68460    0.54149    0.03408    1.000
    N3991    N        0.65254    0.55471    0.00723    1.000
    Si3992   Si       0.64377    0.60838    0.07665    1.000
    N3993    N        0.66700    0.71210    0.09411    1.000
    Si3994   Si       0.67517    0.67041    0.09598    1.000
    N3995    N        0.67042    0.74971    0.99782    1.000
    Si3996   Si       0.69488    0.73887    0.07735    1.000
    N3997    N        0.63674    0.65126    0.08396    1.000
    Si3998   Si       0.63690    0.72331    0.99295    1.000
    Si3999   Si       0.64886    0.56727    0.20226    1.000
    N4000    N        0.67293    0.59474    0.17691    1.000
    N4001    N        0.65714    0.52616    0.21125    1.000
    Si4002   Si       0.65846    0.61935    0.14530    1.000
    N4003    N        0.67528    0.52849    0.14685    1.000
    N4004    N        0.66339    0.58813    0.23867    1.000
    Si4005   Si       0.68836    0.61367    0.21253    1.000
    N4006    N        0.69043    0.71916    0.17001    1.000
    N4007    N        0.68068    0.65673    0.13676    1.000
    Si4008   Si       0.65209    0.67573    0.23575    1.000
    Si4009   Si       0.65535    0.73608    0.23031    1.000
    N4010    N        0.67477    0.65464    0.20590    1.000
    Si4011   Si       0.69025    0.67681    0.17275    1.000
    N4012    N        0.64103    0.75696    0.14532    1.000
    N4013    N        0.67210    0.58040    0.30729    1.000
    Si4014   Si       0.64471    0.57742    0.27503    1.000
    Si4015   Si       0.64443    0.58833    0.33955    1.000
    Si4016   Si       0.66414    0.51232    0.24977    1.000
    Si4017   Si       0.64885    0.66333    0.31103    1.000
    N4018    N        0.67893    0.70884    0.24936    1.000
    Si4019   Si       0.63969    0.73412    0.35654    1.000
    N4020    N        0.64217    0.70156    0.32910    1.000
    Si4021   Si       0.68825    0.58866    0.45568    1.000
    N4022    N        0.65605    0.55951    0.44935    1.000
    Si4023   Si       0.64339    0.54826    0.40918    1.000
    N4024    N        0.65829    0.57356    0.37755    1.000
    Si4025   Si       0.64771    0.53951    0.48571    1.000
    N4026    N        0.68375    0.62458    0.47965    1.000
    N4027    N        0.66036    0.50923    0.39838    1.000
    N4028    N        0.66734    0.72572    0.38876    1.000
    N4029    N        0.64229    0.65969    0.40133    1.000
    Si4030   Si       0.67693    0.68500    0.40013    1.000
    N4031    N        0.65942    0.56805    0.51722    1.000
    N4032    N        0.65611    0.60675    0.57504    1.000
    Si4033   Si       0.66605    0.57826    0.60843    1.000
    N4034    N        0.67454    0.65946    0.53371    1.000
    N4035    N        0.68115    0.71825    0.50257    1.000
    Si4036   Si       0.65254    0.64707    0.49814    1.000
    Si4037   Si       0.68669    0.74983    0.53194    1.000
    N4038    N        0.65809    0.67224    0.61292    1.000
    N4039    N        0.65594    0.75423    0.56356    1.000
    Si4040   Si       0.63652    0.63400    0.60320    1.000
    Si4041   Si       0.63669    0.71167    0.49984    1.000
    N4042    N        0.65597    0.61159    0.70953    1.000
    N4043    N        0.65440    0.60968    0.63632    1.000
    N4044    N        0.65161    0.53223    0.69346    1.000
    Si4045   Si       0.67634    0.61424    0.67149    1.000
    Si4046   Si       0.69323    0.54556    0.69097    1.000
    Si4047   Si       0.66411    0.50727    0.72649    1.000
    N4048    N        0.65799    0.73518    0.65715    1.000
    N4049    N        0.64091    0.73619    0.72776    1.000
    N4050    N        0.64039    0.67317    0.73574    1.000
    Si4051   Si       0.66860    0.63970    0.73962    1.000
    Si4052   Si       0.65758    0.71069    0.69715    1.000
    Si4053   Si       0.63546    0.70211    0.63515    1.000
    N4054    N        0.69469    0.53419    0.80110    1.000
    N4055    N        0.66236    0.62687    0.78032    1.000
    Si4056   Si       0.64059    0.62902    0.85880    1.000
    Si4057   Si       0.66915    0.75045    0.84960    1.000
    Si4058   Si       0.68433    0.65913    0.80199    1.000
    N4059    N        0.67579    0.69758    0.78573    1.000
    N4060    N        0.67332    0.65380    0.84437    1.000
    Si4061   Si       0.64190    0.70901    0.76088    1.000
    N4062    N        0.69146    0.71490    0.86205    1.000
    N4063    N        0.65326    0.60662    0.89505    1.000
    Si4064   Si       0.65153    0.56313    0.90130    1.000
    Si4065   Si       0.67117    0.62431    0.93333    1.000
    N4066    N        0.68904    0.54850    0.91580    1.000
    Si4067   Si       0.63677    0.53490    0.97352    1.000
    N4068    N        0.63629    0.62343    0.95835    1.000
    N4069    N        0.65004    0.69044    0.96882    1.000
    N4070    N        0.68441    0.66409    0.91599    1.000
    Si4071   Si       0.68686    0.69721    0.94689    1.000
    Si4072   Si       0.66543    0.78604    0.01900    1.000
    N4073    N        0.67622    0.77304    0.05824    1.000
    Si4074   Si       0.68535    0.79971    0.09069    1.000
    N4075    N        0.64470    0.81473    0.09511    1.000
    N4076    N        0.69130    0.81836    0.00724    1.000
    Si4077   Si       0.67561    0.92388    0.07678    1.000
    Si4078   Si       0.66855    0.96355    0.01622    1.000
    N4079    N        0.64683    0.98875    0.04359    1.000
    Si4080   Si       0.65985    0.99543    0.08386    1.000
    N4081    N        0.68296    0.92628    0.03377    1.000
    N4082    N        0.69125    0.96390    0.09447    1.000
    Si4083   Si       0.64198    0.90472    0.99725    1.000
    Si4084   Si       0.64398    0.82916    0.13579    1.000
    N4085    N        0.67795    0.80879    0.15468    1.000
    N4086    N        0.64751    0.87156    0.14437    1.000
    N4087    N        0.66763    0.76954    0.20795    1.000
    Si4088   Si       0.67973    0.80476    0.22774    1.000
    N4089    N        0.64874    0.83425    0.22735    1.000
    Si4090   Si       0.68055    0.76575    0.16571    1.000
    Si4091   Si       0.65032    0.87510    0.23954    1.000
    N4092    N        0.69018    0.89520    0.23985    1.000
    N4093    N        0.69013    0.96009    0.22495    1.000
    Si4094   Si       0.67615    0.99427    0.20025    1.000
    N4095    N        0.69086    0.92399    0.16460    1.000
    N4096    N        0.63278    0.98817    0.20287    1.000
    N4097    N        0.63813    0.90288    0.20628    1.000
    Si4098   Si       0.67680    0.92206    0.20711    1.000
    N4099    N        0.68613    0.99456    0.15803    1.000
    Si4100   Si       0.68670    0.88789    0.14147    1.000
    N4101    N        0.67365    0.83890    0.33000    1.000
    Si4102   Si       0.67913    0.79853    0.34736    1.000
    N4103    N        0.68446    0.79228    0.27066    1.000
    N4104    N        0.65053    0.77007    0.33107    1.000
    Si4105   Si       0.64590    0.78156    0.28907    1.000
    Si4106   Si       0.63737    0.85321    0.30882    1.000
    N4107    N        0.68163    0.98157    0.35204    1.000
    Si4108   Si       0.64621    0.97398    0.29583    1.000
    N4109    N        0.68251    0.94950    0.29459    1.000
    Si4110   Si       0.68777    0.93502    0.33760    1.000
    N4111    N        0.65410    0.92371    0.36336    1.000
    Si4112   Si       0.64228    0.98352    0.36571    1.000
    N4113    N        0.68388    0.79409    0.38989    1.000
    N4114    N        0.64850    0.85918    0.39833    1.000
    N4115    N        0.66434    0.81734    0.45572    1.000
    Si4116   Si       0.65635    0.81903    0.41092    1.000
    Si4117   Si       0.63839    0.84011    0.48338    1.000
    N4118    N        0.64849    0.88163    0.47903    1.000
    Si4119   Si       0.65028    0.90145    0.40043    1.000
    Si4120   Si       0.66496    0.97961    0.43538    1.000
    N4121    N        0.68515    0.91090    0.42373    1.000
    N4122    N        0.66464    0.95544    0.47098    1.000
    Si4123   Si       0.67511    0.91349    0.46731    1.000
    N4124    N        0.67438    0.81964    0.57324    1.000
    Si4125   Si       0.66309    0.78290    0.59386    1.000
    Si4126   Si       0.64220    0.84166    0.55523    1.000
    N4127    N        0.65909    0.88101    0.54993    1.000
    Si4128   Si       0.66429    0.96962    0.51292    1.000
    N4129    N        0.65871    0.93355    0.59439    1.000
    Si4130   Si       0.65539    0.97507    0.60718    1.000
    Si4131   Si       0.63804    0.91496    0.56229    1.000
    N4132    N        0.69026    0.99746    0.59660    1.000
    N4133    N        0.63627    0.94512    0.53044    1.000
    N4134    N        0.65465    0.85704    0.71148    1.000
    N4135    N        0.65574    0.91690    0.67978    1.000
    N4136    N        0.68554    0.88615    0.62857    1.000
    N4137    N        0.65700    0.97848    0.65067    1.000
    Si4138   Si       0.68580    0.94974    0.66590    1.000
    Si4139   Si       0.67813    0.89250    0.70965    1.000
    Si4140   Si       0.64664    0.89472    0.64359    1.000
    Si4141   Si       0.65929    0.85854    0.83812    1.000
    Si4142   Si       0.66911    0.79837    0.79271    1.000
    N4143    N        0.64755    0.82052    0.82156    1.000
    N4144    N        0.68673    0.87526    0.80638    1.000
    N4145    N        0.68184    0.76150    0.80917    1.000
    N4146    N        0.67577    0.99381    0.81078    1.000
    N4147    N        0.65333    0.93598    0.80477    1.000
    Si4148   Si       0.64716    0.92426    0.84577    1.000
    Si4149   Si       0.68491    0.91412    0.78810    1.000
    N4150    N        0.68519    0.91157    0.86336    1.000
    N4151    N        0.68848    0.90967    0.74672    1.000
    Si4152   Si       0.63781    0.97608    0.80179    1.000
    N4153    N        0.68778    0.77688    0.88054    1.000
    Si4154   Si       0.67818    0.83946    0.97230    1.000
    Si4155   Si       0.66746    0.81008    0.89964    1.000
    N4156    N        0.67057    0.84792    0.87792    1.000
    N4157    N        0.69243    0.82126    0.93468    1.000
    N4158    N        0.67668    0.88209    0.98255    1.000
    N4159    N        0.63798    0.95815    0.87051    1.000
    Si4160   Si       0.67914    0.88685    0.89931    1.000
    N4161    N        0.68837    0.96063    0.91949    1.000
    Si4162   Si       0.64707    0.94960    0.91287    1.000
    N4163    N        0.63963    0.94742    0.99006    1.000
    N4164    N        0.64305    0.90421    0.91541    1.000
    Si4165   Si       0.71779    0.04449    0.07782    1.000
    N4166    N        0.71396    0.05405    0.03603    1.000
    N4167    N        0.73497    0.07708    0.09874    1.000
    Si4168   Si       0.70345    0.02811    0.00117    1.000
    N4169    N        0.74309    0.01084    0.08910    1.000
    Si4170   Si       0.74691    0.07825    0.01710    1.000
    N4171    N        0.71927    0.15341    0.01052    1.000
    Si4172   Si       0.72841    0.18872    0.08358    1.000
    N4173    N        0.71226    0.22895    0.07961    1.000
    N4174    N        0.69668    0.16012    0.07472    1.000
    N4175    N        0.74704    0.11880    0.15509    1.000
    N4176    N        0.73020    0.08757    0.21746    1.000
    Si4177   Si       0.73445    0.07800    0.14208    1.000
    N4178    N        0.70049    0.06180    0.16088    1.000
    Si4179   Si       0.69434    0.07188    0.20116    1.000
    N4180    N        0.70673    0.24270    0.16115    1.000
    Si4181   Si       0.72115    0.18287    0.22164    1.000
    N4182    N        0.70671    0.16964    0.18285    1.000
    N4183    N        0.74781    0.21823    0.21533    1.000
    N4184    N        0.73877    0.18325    0.12512    1.000
    Si4185   Si       0.70864    0.20079    0.15087    1.000
    N4186    N        0.72457    0.05557    0.35274    1.000
    N4187    N        0.71661    0.11730    0.32060    1.000
    Si4188   Si       0.73193    0.09603    0.26099    1.000
    N4189    N        0.71272    0.06130    0.27913    1.000
    Si4190   Si       0.70257    0.07476    0.31817    1.000
    Si4191   Si       0.74896    0.12758    0.34743    1.000
    Si4192   Si       0.69613    0.02615    0.26254    1.000
    N4193    N        0.69423    0.12374    0.26149    1.000
    N4194    N        0.72439    0.24670    0.27117    1.000
    Si4195   Si       0.70746    0.19099    0.34290    1.000
    N4196    N        0.71109    0.23239    0.34844    1.000
    N4197    N        0.74504    0.17103    0.34800    1.000
    N4198    N        0.72512    0.05994    0.42515    1.000
    Si4199   Si       0.71105    0.07733    0.38855    1.000
    N4200    N        0.73397    0.11394    0.38552    1.000
    N4201    N        0.74481    0.11874    0.46394    1.000
    N4202    N        0.73703    0.01133    0.47552    1.000
    Si4203   Si       0.71324    0.14527    0.47640    1.000
    N4204    N        0.70852    0.15770    0.43401    1.000
    Si4205   Si       0.72791    0.24439    0.38513    1.000
    Si4206   Si       0.74984    0.13375    0.42214    1.000
    N4207    N        0.70090    0.22941    0.41630    1.000
    N4208    N        0.70958    0.18252    0.49890    1.000
    N4209    N        0.72688    0.03588    0.55361    1.000
    Si4210   Si       0.72926    0.09564    0.59627    1.000
    Si4211   Si       0.70848    0.08753    0.52348    1.000
    Si4212   Si       0.71569    0.01920    0.51522    1.000
    N4213    N        0.70109    0.09911    0.56420    1.000
    N4214    N        0.71504    0.05899    0.61632    1.000
    Si4215   Si       0.69653    0.03781    0.58411    1.000
    N4216    N        0.72599    0.18989    0.58802    1.000
    N4217    N        0.74830    0.23084    0.53523    1.000
    Si4218   Si       0.74769    0.20237    0.50175    1.000
    Si4219   Si       0.69123    0.21558    0.58797    1.000
    N4220    N        0.70707    0.25722    0.59595    1.000
    Si4221   Si       0.75172    0.11039    0.65656    1.000
    N4222    N        0.70265    0.03192    0.68048    1.000
    N4223    N        0.72242    0.12689    0.62487    1.000
    Si4224   Si       0.73294    0.03916    0.65030    1.000
    N4225    N        0.73324    0.12798    0.69222    1.000
    Si4226   Si       0.69228    0.12239    0.70603    1.000
    N4227    N        0.69263    0.17985    0.64105    1.000
    Si4228   Si       0.73204    0.17007    0.62552    1.000
    Si4229   Si       0.73463    0.24498    0.74227    1.000
    N4230    N        0.70243    0.22335    0.72222    1.000
    N4231    N        0.71437    0.07533    0.84819    1.000
    Si4232   Si       0.72461    0.11339    0.83359    1.000
    N4233    N        0.70645    0.11862    0.79431    1.000
    N4234    N        0.73431    0.01020    0.79489    1.000
    Si4235   Si       0.69126    0.02235    0.78217    1.000
    N4236    N        0.70564    0.21446    0.84701    1.000
    Si4237   Si       0.71411    0.15535    0.77372    1.000
    Si4238   Si       0.74798    0.20696    0.84437    1.000
    N4239    N        0.69600    0.19322    0.78336    1.000
    Si4240   Si       0.69419    0.22985    0.80704    1.000
    Si4241   Si       0.73879    0.05321    0.87581    1.000
    Si4242   Si       0.72650    0.07157    0.94527    1.000
    N4243    N        0.73438    0.09698    0.97964    1.000
    N4244    N        0.71380    0.02589    0.89735    1.000
    N4245    N        0.73275    0.03410    0.97058    1.000
    N4246    N        0.70898    0.14040    0.86618    1.000
    Si4247   Si       0.72762    0.16310    0.89966    1.000
    Si4248   Si       0.71732    0.13706    0.97066    1.000
    N4249    N        0.69684    0.19106    0.91217    1.000
    N4250    N        0.74397    0.14819    0.93879    1.000
    N4251    N        0.74018    0.22846    0.97198    1.000
    Si4252   Si       0.70661    0.22009    0.94403    1.000
    N4253    N        0.73933    0.31898    0.06091    1.000
    Si4254   Si       0.72984    0.26840    0.06581    1.000
    Si4255   Si       0.70087    0.33039    0.07487    1.000
    N4256    N        0.71252    0.32940    0.11774    1.000
    N4257    N        0.69823    0.37701    0.07991    1.000
    Si4258   Si       0.70682    0.49555    0.07416    1.000
    N4259    N        0.72982    0.44486    0.07090    1.000
    Si4260   Si       0.73558    0.44903    0.02822    1.000
    Si4261   Si       0.75105    0.30999    0.11778    1.000
    N4262    N        0.72401    0.34846    0.22006    1.000
    N4263    N        0.73577    0.28489    0.21592    1.000
    Si4264   Si       0.69848    0.31180    0.21687    1.000
    N4265    N        0.75514    0.29777    0.15911    1.000
    Si4266   Si       0.74254    0.25924    0.17891    1.000
    Si4267   Si       0.69473    0.37018    0.12530    1.000
    Si4268   Si       0.70260    0.38085    0.20519    1.000
    N4269    N        0.70322    0.41572    0.22891    1.000
    N4270    N        0.71436    0.48990    0.21012    1.000
    N4271    N        0.71205    0.38412    0.16254    1.000
    N4272    N        0.71220    0.29302    0.31824    1.000
    Si4273   Si       0.72129    0.28872    0.27598    1.000
    N4274    N        0.73940    0.34719    0.35642    1.000
    Si4275   Si       0.74256    0.30523    0.34697    1.000
    Si4276   Si       0.70882    0.37709    0.35502    1.000
    Si4277   Si       0.74754    0.35594    0.25688    1.000
    N4278    N        0.73517    0.38803    0.28600    1.000
    N4279    N        0.73639    0.41337    0.34823    1.000
    Si4280   Si       0.71449    0.45088    0.33921    1.000
    N4281    N        0.74534    0.48205    0.34150    1.000
    Si4282   Si       0.69935    0.40845    0.27228    1.000
    N4283    N        0.72409    0.28610    0.46118    1.000
    Si4284   Si       0.72771    0.30757    0.42246    1.000
    N4285    N        0.73927    0.28644    0.38653    1.000
    Si4286   Si       0.74778    0.36720    0.46935    1.000
    N4287    N        0.70367    0.37511    0.46480    1.000
    Si4288   Si       0.69387    0.28480    0.49393    1.000
    N4289    N        0.71936    0.49219    0.43811    1.000
    N4290    N        0.70615    0.39326    0.39778    1.000
    Si4291   Si       0.70183    0.49657    0.39979    1.000
    Si4292   Si       0.74368    0.41540    0.39107    1.000
    N4293    N        0.71440    0.29043    0.53096    1.000
    N4294    N        0.71295    0.36022    0.55453    1.000
    Si4295   Si       0.74390    0.27589    0.61338    1.000
    Si4296   Si       0.69979    0.36209    0.59595    1.000
    Si4297   Si       0.75060    0.37555    0.54003    1.000
    Si4298   Si       0.69153    0.32398    0.54434    1.000
    N4299    N        0.71712    0.47056    0.50174    1.000
    Si4300   Si       0.70816    0.43711    0.52761    1.000
    Si4301   Si       0.73851    0.46356    0.58205    1.000
    N4302    N        0.74420    0.41485    0.52213    1.000
    Si4303   Si       0.74421    0.50037    0.52199    1.000
    N4304    N        0.69942    0.45071    0.56854    1.000
    N4305    N        0.73597    0.50146    0.60097    1.000
    N4306    N        0.75057    0.43022    0.60916    1.000
    N4307    N        0.73385    0.36369    0.62334    1.000
    Si4308   Si       0.73556    0.33462    0.65386    1.000
    N4309    N        0.71861    0.34419    0.69376    1.000
    N4310    N        0.71510    0.30039    0.64134    1.000
    N4311    N        0.74293    0.27452    0.71210    1.000
    Si4312   Si       0.71441    0.30833    0.71961    1.000
    Si4313   Si       0.71827    0.38567    0.70378    1.000
    Si4314   Si       0.73207    0.44011    0.64899    1.000
    N4315    N        0.74459    0.39152    0.74089    1.000
    N4316    N        0.73920    0.41733    0.68445    1.000
    N4317    N        0.71949    0.45096    0.73965    1.000
    N4318    N        0.72752    0.30707    0.82785    1.000
    Si4319   Si       0.70735    0.30282    0.78994    1.000
    N4320    N        0.72797    0.32329    0.75709    1.000
    N4321    N        0.71344    0.25870    0.77926    1.000
    Si4322   Si       0.71318    0.32325    0.86810    1.000
    N4323    N        0.72569    0.40063    0.81020    1.000
    N4324    N        0.70689    0.46623    0.80535    1.000
    Si4325   Si       0.71418    0.40066    0.85296    1.000
    Si4326   Si       0.73738    0.47186    0.77318    1.000
    Si4327   Si       0.72132    0.47371    0.84713    1.000
    N4328    N        0.72108    0.36669    0.87906    1.000
    Si4329   Si       0.74279    0.27839    0.92033    1.000
    N4330    N        0.74813    0.30125    0.88577    1.000
    Si4331   Si       0.73398    0.26898    0.99063    1.000
    N4332    N        0.70385    0.26135    0.92884    1.000
    Si4333   Si       0.74837    0.38012    0.91114    1.000
    Si4334   Si       0.72172    0.40826    0.98069    1.000
    N4335    N        0.72200    0.43847    0.87257    1.000
    N4336    N        0.72075    0.48275    0.92155    1.000
    N4337    N        0.72681    0.41045    0.93806    1.000
    N4338    N        0.70841    0.44905    0.99255    1.000
    Si4339   Si       0.70959    0.44212    0.91407    1.000
    N4340    N        0.73575    0.59902    0.06923    1.000
    N4341    N        0.72469    0.55353    0.02312    1.000
    Si4342   Si       0.74130    0.55409    0.06641    1.000
    Si4343   Si       0.70929    0.62711    0.04782    1.000
    N4344    N        0.74992    0.51026    0.08232    1.000
    N4345    N        0.69400    0.53934    0.07734    1.000
    N4346    N        0.73341    0.63386    0.01344    1.000
    N4347    N        0.71167    0.66448    0.07092    1.000
    N4348    N        0.72124    0.72360    0.04434    1.000
    Si4349   Si       0.71069    0.73295    0.00353    1.000
    Si4350   Si       0.74375    0.68725    0.04973    1.000
    N4351    N        0.73381    0.61685    0.14153    1.000
    N4352    N        0.73160    0.61244    0.21279    1.000
    Si4353   Si       0.74783    0.51712    0.20649    1.000
    N4354    N        0.74801    0.53254    0.16656    1.000
    N4355    N        0.75123    0.54562    0.24085    1.000
    Si4356   Si       0.74742    0.63378    0.17738    1.000
    Si4357   Si       0.73487    0.72381    0.17598    1.000
    N4358    N        0.73377    0.67725    0.18554    1.000
    N4359    N        0.75300    0.72027    0.13650    1.000
    N4360    N        0.71833    0.59834    0.35295    1.000
    Si4361   Si       0.71493    0.57987    0.31232    1.000
    N4362    N        0.73493    0.60305    0.27961    1.000
    Si4363   Si       0.74131    0.52340    0.27771    1.000
    N4364    N        0.74019    0.54459    0.31606    1.000
    N4365    N        0.69776    0.51796    0.27459    1.000
    Si4366   Si       0.75171    0.52477    0.35363    1.000
    Si4367   Si       0.73583    0.63557    0.36730    1.000
    Si4368   Si       0.70592    0.69895    0.27949    1.000
    Si4369   Si       0.73036    0.64418    0.29266    1.000
    N4370    N        0.72681    0.73330    0.29373    1.000
    N4371    N        0.73547    0.67338    0.26012    1.000
    N4372    N        0.69269    0.66285    0.30233    1.000
    N4373    N        0.71777    0.53359    0.38099    1.000
    N4374    N        0.71023    0.59537    0.41934    1.000
    N4375    N        0.71973    0.57427    0.48343    1.000
    Si4376   Si       0.70059    0.57422    0.38321    1.000
    Si4377   Si       0.75098    0.60650    0.42983    1.000
    N4378    N        0.74841    0.71866    0.48771    1.000
    Si4379   Si       0.70873    0.72369    0.46884    1.000
    N4380    N        0.70180    0.69704    0.43512    1.000
    N4381    N        0.74711    0.63253    0.46207    1.000
    N4382    N        0.71440    0.67037    0.38097    1.000
    Si4383   Si       0.73667    0.70035    0.40439    1.000
    N4384    N        0.73294    0.74087    0.39082    1.000
    Si4385   Si       0.69399    0.75551    0.40583    1.000
    N4386    N        0.71861    0.60327    0.53954    1.000
    N4387    N        0.72225    0.53198    0.54033    1.000
    Si4388   Si       0.73457    0.54078    0.58191    1.000
    N4389    N        0.70854    0.56814    0.60697    1.000
    Si4390   Si       0.70172    0.56623    0.52183    1.000
    Si4391   Si       0.72539    0.62458    0.49840    1.000
    Si4392   Si       0.69125    0.63065    0.56041    1.000
    N4393    N        0.72114    0.72547    0.55323    1.000
    Si4394   Si       0.72658    0.73693    0.59552    1.000
    N4395    N        0.71611    0.65084    0.58883    1.000
    N4396    N        0.73360    0.66452    0.51260    1.000
    Si4397   Si       0.70536    0.69083    0.53057    1.000
    N4398    N        0.70703    0.58268    0.67392    1.000
    Si4399   Si       0.73520    0.58240    0.64072    1.000
    N4400    N        0.70192    0.51276    0.66264    1.000
    N4401    N        0.70117    0.53102    0.73055    1.000
    Si4402   Si       0.73840    0.51119    0.64250    1.000
    N4403    N        0.70145    0.64999    0.66196    1.000
    Si4404   Si       0.73031    0.73712    0.71593    1.000
    Si4405   Si       0.69961    0.74375    0.65135    1.000
    Si4406   Si       0.69948    0.67017    0.62395    1.000
    N4407    N        0.70975    0.64699    0.73147    1.000
    N4408    N        0.71384    0.71065    0.62653    1.000
    Si4409   Si       0.72012    0.66761    0.69602    1.000
    N4410    N        0.70113    0.70739    0.70035    1.000
    Si4411   Si       0.71905    0.54067    0.76731    1.000
    N4412    N        0.72752    0.58166    0.76165    1.000
    Si4413   Si       0.73428    0.62575    0.75982    1.000
    N4414    N        0.72484    0.64675    0.79846    1.000
    N4415    N        0.73852    0.71649    0.79902    1.000
    Si4416   Si       0.70220    0.73300    0.78388    1.000
    N4417    N        0.71081    0.75619    0.74878    1.000
    N4418    N        0.70654    0.60646    0.94958    1.000
    Si4419   Si       0.72157    0.57247    0.92930    1.000
    Si4420   Si       0.74043    0.61999    0.97275    1.000
    N4421    N        0.73711    0.53784    0.95250    1.000
    Si4422   Si       0.69928    0.51644    0.93982    1.000
    Si4423   Si       0.75388    0.54788    0.99183    1.000
    Si4424   Si       0.71690    0.74359    0.88559    1.000
    Si4425   Si       0.69765    0.67355    0.87481    1.000
    N4426    N        0.71558    0.69734    0.97993    1.000
    N4427    N        0.73957    0.66024    0.87057    1.000
    N4428    N        0.70833    0.72981    0.92674    1.000
    Si4429   Si       0.74274    0.74887    0.94523    1.000
    Si4430   Si       0.72495    0.83007    0.03287    1.000
    N4431    N        0.73694    0.87034    0.01919    1.000
    Si4432   Si       0.72348    0.86174    0.10188    1.000
    N4433    N        0.71167    0.83077    0.07599    1.000
    N4434    N        0.70893    0.76588    0.10820    1.000
    N4435    N        0.70375    0.98514    0.00672    1.000
    Si4436   Si       0.70737    0.90137    0.00825    1.000
    Si4437   Si       0.74146    0.96144    0.01039    1.000
    Si4438   Si       0.73554    0.96779    0.08644    1.000
    N4439    N        0.69701    0.89528    0.10023    1.000
    Si4440   Si       0.74677    0.76310    0.12935    1.000
    Si4441   Si       0.72066    0.81542    0.17275    1.000
    N4442    N        0.72621    0.77044    0.16842    1.000
    N4443    N        0.71636    0.82298    0.21429    1.000
    N4444    N        0.72057    0.85782    0.14669    1.000
    Si4445   Si       0.70195    0.95807    0.13732    1.000
    N4446    N        0.74419    0.95135    0.12709    1.000
    Si4447   Si       0.71469    0.85511    0.32226    1.000
    Si4448   Si       0.72028    0.77691    0.29074    1.000
    N4449    N        0.72033    0.78902    0.33235    1.000
    N4450    N        0.72947    0.85508    0.28001    1.000
    Si4451   Si       0.74691    0.77246    0.36366    1.000
    N4452    N        0.75090    0.85999    0.34648    1.000
    Si4453   Si       0.74656    0.83024    0.24897    1.000
    N4454    N        0.75057    0.78978    0.26199    1.000
    Si4455   Si       0.71131    0.95950    0.26296    1.000
    Si4456   Si       0.71285    0.89618    0.27634    1.000
    N4457    N        0.74168    0.92918    0.26908    1.000
    N4458    N        0.72939    0.99824    0.26933    1.000
    N4459    N        0.70922    0.89798    0.32162    1.000
    Si4460   Si       0.74515    0.90227    0.35626    1.000
    N4461    N        0.75407    0.99434    0.35344    1.000
    N4462    N        0.73594    0.81923    0.46182    1.000
    Si4463   Si       0.69903    0.79753    0.47088    1.000
    Si4464   Si       0.74700    0.84467    0.49449    1.000
    N4465    N        0.70214    0.76035    0.44922    1.000
    Si4466   Si       0.74065    0.97956    0.44640    1.000
    N4467    N        0.72147    0.93733    0.36974    1.000
    N4468    N        0.74449    0.93734    0.44834    1.000
    Si4469   Si       0.72299    0.92466    0.41302    1.000
    N4470    N        0.70590    0.97815    0.41720    1.000
    Si4471   Si       0.71759    0.98061    0.37357    1.000
    N4472    N        0.73981    0.81391    0.57476    1.000
    N4473    N        0.71779    0.85187    0.52480    1.000
    Si4474   Si       0.70768    0.81626    0.54612    1.000
    Si4475   Si       0.72984    0.80856    0.61569    1.000
    N4476    N        0.70335    0.77216    0.61344    1.000
    N4477    N        0.69960    0.78683    0.51407    1.000
    Si4478   Si       0.73384    0.95135    0.54419    1.000
    N4479    N        0.71699    0.91561    0.56192    1.000
    N4480    N        0.70605    0.97770    0.52359    1.000
    Si4481   Si       0.72668    0.97942    0.61097    1.000
    Si4482   Si       0.69855    0.88863    0.53378    1.000
    Si4483   Si       0.70015    0.91782    0.60111    1.000
    N4484    N        0.70614    0.90886    0.49565    1.000
    N4485    N        0.72349    0.76398    0.68228    1.000
    N4486    N        0.73619    0.82520    0.71336    1.000
    Si4487   Si       0.73588    0.80500    0.67575    1.000
    N4488    N        0.71294    0.83071    0.64853    1.000
    Si4489   Si       0.72030    0.87373    0.65185    1.000
    Si4490   Si       0.73887    0.92923    0.70598    1.000
    N4491    N        0.71765    0.89546    0.68936    1.000
    Si4492   Si       0.71862    0.00379    0.71112    1.000
    N4493    N        0.71154    0.96239    0.69749    1.000
    N4494    N        0.71436    0.94596    0.63306    1.000
    N4495    N        0.75347    0.00277    0.63599    1.000
    Si4496   Si       0.72280    0.85171    0.79766    1.000
    N4497    N        0.73683    0.83627    0.83493    1.000
    N4498    N        0.70234    0.81933    0.77642    1.000
    N4499    N        0.74902    0.87377    0.76924    1.000
    Si4500   Si       0.72377    0.79678    0.74740    1.000
    Si4501   Si       0.71503    0.97661    0.81799    1.000
    N4502    N        0.72354    0.93336    0.80607    1.000
    N4503    N        0.72668    0.96719    0.85975    1.000
    Si4504   Si       0.72357    0.92328    0.85148    1.000
    N4505    N        0.74935    0.82932    0.97024    1.000
    Si4506   Si       0.73553    0.81991    0.92983    1.000
    N4507    N        0.74921    0.78198    0.91500    1.000
    N4508    N        0.73873    0.76230    0.98513    1.000
    N4509    N        0.75105    0.96513    0.92683    1.000
    N4510    N        0.72649    0.93051    0.98291    1.000
    Si4511   Si       0.71921    0.93859    0.94194    1.000
    N4512    N        0.71557    0.89982    0.92292    1.000
    Si4513   Si       0.71967    0.98331    0.90019    1.000
    N4514    N        0.77859    0.05027    0.01650    1.000
    Si4515   Si       0.76894    0.09499    0.08240    1.000
    Si4516   Si       0.77774    0.03168    0.11056    1.000
    N4517    N        0.79259    0.05707    0.08100    1.000
    N4518    N        0.76033    0.11074    0.04280    1.000
    N4519    N        0.78644    0.12991    0.10275    1.000
    Si4520   Si       0.80136    0.19679    0.06740    1.000
    N4521    N        0.76162    0.18525    0.05558    1.000
    Si4522   Si       0.75782    0.15175    0.02792    1.000
    N4523    N        0.80643    0.20743    0.10765    1.000
    N4524    N        0.78951    0.15306    0.99754    1.000
    N4525    N        0.76729    0.05132    0.14722    1.000
    N4526    N        0.79448    0.09431    0.19943    1.000
    Si4527   Si       0.80825    0.09935    0.23939    1.000
    Si4528   Si       0.80317    0.06246    0.16940    1.000
    Si4529   Si       0.75679    0.11670    0.19751    1.000
    Si4530   Si       0.78902    0.24649    0.12139    1.000
    N4531    N        0.75572    0.15302    0.22115    1.000
    Si4532   Si       0.78071    0.20434    0.18988    1.000
    Si4533   Si       0.76683    0.15164    0.13492    1.000
    N4534    N        0.80908    0.20325    0.22356    1.000
    N4535    N        0.79404    0.17183    0.16402    1.000
    N4536    N        0.77398    0.23511    0.16021    1.000
    Si4537   Si       0.79005    0.16774    0.24529    1.000
    N4538    N        0.78256    0.10197    0.33863    1.000
    N4539    N        0.77726    0.04046    0.30821    1.000
    N4540    N        0.77680    0.09609    0.26789    1.000
    Si4541   Si       0.79613    0.08042    0.30355    1.000
    Si4542   Si       0.76299    0.03552    0.35006    1.000
    N4543    N        0.79822    0.01593    0.24864    1.000
    Si4544   Si       0.77872    0.19676    0.35698    1.000
    N4545    N        0.80152    0.21976    0.32899    1.000
    Si4546   Si       0.76148    0.23025    0.25695    1.000
    N4547    N        0.76583    0.18980    0.27275    1.000
    Si4548   Si       0.80606    0.09206    0.37385    1.000
    N4549    N        0.79544    0.04804    0.37526    1.000
    Si4550   Si       0.77159    0.09601    0.48597    1.000
    N4551    N        0.79315    0.11345    0.40813    1.000
    N4552    N        0.78656    0.05990    0.46594    1.000
    Si4553   Si       0.80436    0.01055    0.39762    1.000
    Si4554   Si       0.75442    0.03839    0.44559    1.000
    N4555    N        0.76615    0.22390    0.38762    1.000
    N4556    N        0.77486    0.17092    0.42509    1.000
    Si4557   Si       0.78212    0.21418    0.42874    1.000
    N4558    N        0.76386    0.22457    0.46579    1.000
    Si4559   Si       0.80985    0.15132    0.40627    1.000
    N4560    N        0.77062    0.08604    0.58604    1.000
    Si4561   Si       0.76594    0.05792    0.55173    1.000
    N4562    N        0.79646    0.02733    0.54636    1.000
    Si4563   Si       0.80377    0.10694    0.60168    1.000
    N4564    N        0.80245    0.12219    0.50133    1.000
    N4565    N        0.75078    0.08426    0.52066    1.000
    Si4566   Si       0.75849    0.19953    0.56330    1.000
    N4567    N        0.79262    0.20905    0.58759    1.000
    N4568    N        0.76559    0.17211    0.52979    1.000
    Si4569   Si       0.80487    0.15461    0.53041    1.000
    N4570    N        0.79119    0.12012    0.64313    1.000
    N4571    N        0.77261    0.09562    0.73597    1.000
    Si4572   Si       0.79831    0.01142    0.71081    1.000
    N4573    N        0.75765    0.02108    0.71787    1.000
    Si4574   Si       0.76927    0.06135    0.70900    1.000
    N4575    N        0.75751    0.06897    0.66796    1.000
    Si4576   Si       0.78848    0.21891    0.62913    1.000
    Si4577   Si       0.76362    0.13474    0.72255    1.000
    N4578    N        0.76294    0.25081    0.64254    1.000
    Si4579   Si       0.80182    0.15724    0.66194    1.000
    N4580    N        0.79727    0.15381    0.70495    1.000
    Si4581   Si       0.80785    0.23824    0.73495    1.000
    N4582    N        0.76910    0.18250    0.64381    1.000
    N4583    N        0.77145    0.03886    0.85177    1.000
    N4584    N        0.78876    0.05764    0.78705    1.000
    N4585    N        0.76857    0.11430    0.82906    1.000
    Si4586   Si       0.77319    0.02430    0.80944    1.000
    Si4587   Si       0.79959    0.08681    0.81539    1.000
    Si4588   Si       0.80896    0.08009    0.75553    1.000
    Si4589   Si       0.78827    0.15043    0.84510    1.000
    Si4590   Si       0.77714    0.18909    0.77496    1.000
    N4591    N        0.76486    0.24444    0.84011    1.000
    N4592    N        0.76879    0.18107    0.81645    1.000
    N4593    N        0.77078    0.22536    0.75145    1.000
    N4594    N        0.75158    0.15805    0.75570    1.000
    Si4595   Si       0.80965    0.24401    0.84005    1.000
    Si4596   Si       0.77216    0.02243    0.98377    1.000
    Si4597   Si       0.79316    0.09624    0.90928    1.000
    N4598    N        0.80034    0.02089    0.95304    1.000
    N4599    N        0.75320    0.07671    0.91063    1.000
    N4600    N        0.80251    0.12787    0.88214    1.000
    N4601    N        0.79589    0.19153    0.93927    1.000
    Si4602   Si       0.78930    0.21051    0.90123    1.000
    Si4603   Si       0.78476    0.15104    0.95408    1.000
    N4604    N        0.76916    0.24568    0.91818    1.000
    N4605    N        0.80487    0.25389    0.98310    1.000
    N4606    N        0.76109    0.18399    0.87889    1.000
    Si4607   Si       0.78021    0.23015    0.95683    1.000
    Si4608   Si       0.77973    0.33093    0.04917    1.000
    N4609    N        0.78710    0.33147    0.10926    1.000
    N4610    N        0.77644    0.34405    0.00734    1.000
    Si4611   Si       0.79525    0.37600    0.10556    1.000
    N4612    N        0.79060    0.37323    0.06210    1.000
    N4613    N        0.75807    0.26869    0.10077    1.000
    Si4614   Si       0.79603    0.26155    0.02582    1.000
    N4615    N        0.80898    0.29761    0.04725    1.000
    N4616    N        0.75355    0.26186    0.02926    1.000
    Si4617   Si       0.78684    0.38401    0.02017    1.000
    N4618    N        0.79566    0.45917    0.08686    1.000
    Si4619   Si       0.78403    0.49121    0.06177    1.000
    N4620    N        0.76508    0.47956    0.02319    1.000
    Si4621   Si       0.75700    0.44285    0.10675    1.000
    N4622    N        0.76592    0.40424    0.12216    1.000
    N4623    N        0.75434    0.41198    0.01123    1.000
    N4624    N        0.79768    0.31685    0.21747    1.000
    N4625    N        0.77393    0.35613    0.17329    1.000
    Si4626   Si       0.75783    0.32018    0.19694    1.000
    N4627    N        0.76535    0.41881    0.19374    1.000
    Si4628   Si       0.79596    0.40727    0.22194    1.000
    Si4629   Si       0.77646    0.45848    0.17614    1.000
    Si4630   Si       0.79912    0.48320    0.24382    1.000
    N4631    N        0.78069    0.49011    0.20473    1.000
    Si4632   Si       0.75279    0.39360    0.16155    1.000
    N4633    N        0.75316    0.47209    0.13883    1.000
    N4634    N        0.78275    0.28641    0.34154    1.000
    Si4635   Si       0.79492    0.30203    0.25729    1.000
    N4636    N        0.79237    0.36802    0.32365    1.000
    Si4637   Si       0.78005    0.35883    0.36487    1.000
    N4638    N        0.79166    0.26085    0.27342    1.000
    Si4639   Si       0.80448    0.26111    0.31423    1.000
    N4640    N        0.75604    0.31681    0.27099    1.000
    N4641    N        0.79024    0.37795    0.25504    1.000
    Si4642   Si       0.76377    0.40032    0.31598    1.000
    N4643    N        0.76907    0.49061    0.27527    1.000
    N4644    N        0.79116    0.43347    0.31661    1.000
    Si4645   Si       0.77765    0.47401    0.31490    1.000
    N4646    N        0.79025    0.26919    0.42957    1.000
    Si4647   Si       0.76281    0.26728    0.46538    1.000
    Si4648   Si       0.79596    0.35235    0.42642    1.000
    N4649    N        0.80009    0.32884    0.39017    1.000
    Si4650   Si       0.79233    0.28580    0.38596    1.000
    N4651    N        0.75247    0.34118    0.43481    1.000
    N4652    N        0.77954    0.38919    0.39524    1.000
    N4653    N        0.78909    0.46220    0.47386    1.000
    N4654    N        0.76001    0.44557    0.41620    1.000
    N4655    N        0.77403    0.40104    0.46385    1.000
    Si4656   Si       0.76204    0.47961    0.44361    1.000
    Si4657   Si       0.79414    0.41787    0.42983    1.000
    Si4658   Si       0.80829    0.50391    0.48326    1.000
    N4659    N        0.77044    0.28302    0.57733    1.000
    Si4660   Si       0.79301    0.32228    0.50245    1.000
    N4661    N        0.77704    0.28392    0.50165    1.000
    N4662    N        0.76016    0.35067    0.50615    1.000
    N4663    N        0.77862    0.37510    0.57290    1.000
    Si4664   Si       0.75519    0.27487    0.53730    1.000
    Si4665   Si       0.76594    0.38994    0.61198    1.000
    N4666    N        0.76675    0.47583    0.55110    1.000
    Si4667   Si       0.80771    0.46670    0.54643    1.000
    N4668    N        0.81094    0.42739    0.52772    1.000
    Si4669   Si       0.77783    0.42688    0.49917    1.000
    Si4670   Si       0.76885    0.27566    0.67733    1.000
    N4671    N        0.78890    0.33404    0.72718    1.000
    N4672    N        0.77447    0.31450    0.65681    1.000
    N4673    N        0.80017    0.37947    0.63943    1.000
    N4674    N        0.80716    0.26887    0.70222    1.000
    Si4675   Si       0.75627    0.43177    0.72556    1.000
    Si4676   Si       0.79475    0.47360    0.67856    1.000
    N4677    N        0.75555    0.47578    0.66049    1.000
    N4678    N        0.79135    0.45815    0.71815    1.000
    N4679    N        0.77913    0.36237    0.78835    1.000
    Si4680   Si       0.76266    0.28675    0.84449    1.000
    Si4681   Si       0.76030    0.35326    0.75119    1.000
    N4682    N        0.80742    0.28851    0.83996    1.000
    N4683    N        0.77111    0.44342    0.77160    1.000
    Si4684   Si       0.76493    0.40732    0.79245    1.000
    N4685    N        0.79706    0.41116    0.82351    1.000
    N4686    N        0.76100    0.48696    0.83949    1.000
    Si4687   Si       0.79446    0.49784    0.86296    1.000
    Si4688   Si       0.80913    0.46117    0.75820    1.000
    Si4689   Si       0.78256    0.32632    0.96885    1.000
    N4690    N        0.77617    0.36016    0.94142    1.000
    N4691    N        0.75410    0.29419    0.96086    1.000
    Si4692   Si       0.80805    0.38625    0.92604    1.000
    N4693    N        0.80386    0.46094    0.88276    1.000
    N4694    N        0.78229    0.39724    0.89053    1.000
    Si4695   Si       0.79116    0.48865    0.99052    1.000
    N4696    N        0.78293    0.47742    0.94987    1.000
    Si4697   Si       0.75713    0.50548    0.92712    1.000
    N4698    N        0.78220    0.56634    0.04857    1.000
    Si4699   Si       0.76499    0.60406    0.03084    1.000
    N4700    N        0.79981    0.62936    0.04001    1.000
    N4701    N        0.79299    0.62762    0.11017    1.000
    N4702    N        0.76834    0.56336    0.11396    1.000
    Si4703   Si       0.75640    0.60440    0.10746    1.000
    N4704    N        0.78215    0.69181    0.07396    1.000
    Si4705   Si       0.78474    0.71674    0.10878    1.000
    N4706    N        0.77292    0.69394    0.01400    1.000
    Si4707   Si       0.80282    0.65331    0.07659    1.000
    N4708    N        0.81026    0.75254    0.03554    1.000
    Si4709   Si       0.80830    0.70756    0.03402    1.000
    N4710    N        0.77934    0.76036    0.10071    1.000
    N4711    N        0.80782    0.51344    0.12821    1.000
    Si4712   Si       0.76127    0.51678    0.12957    1.000
    N4713    N        0.79595    0.59596    0.23760    1.000
    Si4714   Si       0.75356    0.59079    0.24220    1.000
    Si4715   Si       0.75474    0.68677    0.22334    1.000
    N4716    N        0.79089    0.63745    0.18042    1.000
    N4717    N        0.79382    0.67516    0.23584    1.000
    N4718    N        0.75352    0.72897    0.21554    1.000
    Si4719   Si       0.80913    0.63683    0.22059    1.000
    N4720    N        0.78992    0.69387    0.30891    1.000
    N4721    N        0.79735    0.74214    0.27150    1.000
    Si4722   Si       0.79433    0.65942    0.33353    1.000
    Si4723   Si       0.76861    0.73033    0.30410    1.000
    N4724    N        0.77619    0.74932    0.34174    1.000
    Si4725   Si       0.80740    0.72408    0.35919    1.000
    N4726    N        0.75446    0.64517    0.32896    1.000
    N4727    N        0.78944    0.53554    0.37278    1.000
    Si4728   Si       0.79788    0.54621    0.41373    1.000
    N4729    N        0.77240    0.56980    0.43753    1.000
    Si4730   Si       0.76046    0.56048    0.47972    1.000
    N4731    N        0.79450    0.50555    0.42821    1.000
    N4732    N        0.76667    0.51808    0.48971    1.000
    N4733    N        0.76766    0.62894    0.39484    1.000
    N4734    N        0.80164    0.68407    0.37054    1.000
    Si4735   Si       0.79622    0.66179    0.40792    1.000
    Si4736   Si       0.75915    0.67676    0.47581    1.000
    N4737    N        0.76888    0.68758    0.43189    1.000
    N4738    N        0.76981    0.56403    0.57429    1.000
    N4739    N        0.77800    0.58614    0.50955    1.000
    Si4740   Si       0.76243    0.59671    0.54813    1.000
    Si4741   Si       0.81259    0.56970    0.58511    1.000
    N4742    N        0.77982    0.63294    0.56109    1.000
    N4743    N        0.78393    0.70113    0.55313    1.000
    Si4744   Si       0.79933    0.66348    0.53652    1.000
    N4745    N        0.76936    0.74480    0.60389    1.000
    Si4746   Si       0.79657    0.71045    0.59521    1.000
    Si4747   Si       0.75835    0.64545    0.59795    1.000
    Si4748   Si       0.76021    0.72703    0.52956    1.000
    N4749    N        0.78543    0.67421    0.61695    1.000
    N4750    N        0.79975    0.66507    0.49364    1.000
    N4751    N        0.76093    0.54880    0.64688    1.000
    Si4752   Si       0.80466    0.54019    0.64874    1.000
    N4753    N        0.80193    0.55411    0.73465    1.000
    N4754    N        0.75762    0.61654    0.63126    1.000
    N4755    N        0.76128    0.67812    0.68979    1.000
    Si4756   Si       0.79367    0.70468    0.70939    1.000
    Si4757   Si       0.79033    0.67075    0.65920    1.000
    N4758    N        0.77404    0.73775    0.72856    1.000
    N4759    N        0.80819    0.71091    0.66782    1.000
    Si4760   Si       0.79085    0.53171    0.77136    1.000
    N4761    N        0.76791    0.61409    0.84138    1.000
    N4762    N        0.79448    0.56907    0.79394    1.000
    Si4763   Si       0.80035    0.59314    0.75521    1.000
    Si4764   Si       0.80189    0.59427    0.82897    1.000
    N4765    N        0.77525    0.62459    0.74724    1.000
    N4766    N        0.75333    0.51326    0.76888    1.000
    N4767    N        0.79109    0.67987    0.82097    1.000
    Si4768   Si       0.77217    0.72129    0.82559    1.000
    Si4769   Si       0.75566    0.65389    0.83000    1.000
    N4770    N        0.79441    0.75198    0.80490    1.000
    N4771    N        0.75716    0.73825    0.86500    1.000
    Si4772   Si       0.79224    0.56298    0.90049    1.000
    N4773    N        0.77920    0.52184    0.89465    1.000
    N4774    N        0.79499    0.53192    0.99046    1.000
    N4775    N        0.76786    0.58909    0.98719    1.000
    Si4776   Si       0.76413    0.62310    0.88422    1.000
    Si4777   Si       0.81051    0.57411    0.97870    1.000
    N4778    N        0.75477    0.58609    0.90467    1.000
    Si4779   Si       0.80434    0.64288    0.94469    1.000
    N4780    N        0.80209    0.63323    0.90101    1.000
    Si4781   Si       0.75815    0.68984    0.97404    1.000
    N4782    N        0.77546    0.71927    0.94587    1.000
    N4783    N        0.76393    0.65161    0.95523    1.000
    Si4784   Si       0.78745    0.78093    0.06229    1.000
    N4785    N        0.76697    0.85642    0.10630    1.000
    Si4786   Si       0.80344    0.85328    0.08628    1.000
    N4787    N        0.75817    0.80234    0.03661    1.000
    N4788    N        0.80341    0.88068    0.05658    1.000
    N4789    N        0.75215    0.94697    0.05127    1.000
    N4790    N        0.80024    0.93990    0.09813    1.000
    Si4791   Si       0.78985    0.92222    0.05951    1.000
    Si4792   Si       0.77362    0.76051    0.23830    1.000
    N4793    N        0.76629    0.82180    0.16902    1.000
    Si4794   Si       0.79710    0.81923    0.19962    1.000
    Si4795   Si       0.76390    0.85984    0.14884    1.000
    N4796    N        0.78581    0.84542    0.23270    1.000
    N4797    N        0.80598    0.77900    0.21613    1.000
    Si4798   Si       0.78123    0.93647    0.13781    1.000
    N4799    N        0.78941    0.89481    0.15943    1.000
    N4800    N        0.79735    0.91707    0.23299    1.000
    N4801    N        0.79837    0.95651    0.17350    1.000
    N4802    N        0.80861    0.00380    0.12257    1.000
    Si4803   Si       0.80915    0.91933    0.19311    1.000
    Si4804   Si       0.80889    0.87700    0.25089    1.000
    N4805    N        0.78423    0.92102    0.35317    1.000
    Si4806   Si       0.78535    0.93169    0.27340    1.000
    N4807    N        0.79083    0.96793    0.29738    1.000
    Si4808   Si       0.78528    0.96428    0.33908    1.000
    N4809    N        0.80467    0.89537    0.29109    1.000
    Si4810   Si       0.77101    0.00659    0.28085    1.000
    Si4811   Si       0.78139    0.84337    0.37609    1.000
    Si4812   Si       0.76670    0.81032    0.43110    1.000
    N4813    N        0.76412    0.80378    0.38798    1.000
    N4814    N        0.79460    0.84504    0.42295    1.000
    N4815    N        0.79172    0.78355    0.45285    1.000
    N4816    N        0.77007    0.87932    0.47768    1.000
    Si4817   Si       0.78121    0.88692    0.43265    1.000
    N4818    N        0.75075    0.89069    0.40300    1.000
    Si4819   Si       0.74647    0.91640    0.48492    1.000
    N4820    N        0.77241    0.00328    0.42593    1.000
    Si4821   Si       0.77472    0.80530    0.55146    1.000
    N4822    N        0.78237    0.82855    0.51571    1.000
    N4823    N        0.77373    0.76686    0.52779    1.000
    N4824    N        0.80612    0.79841    0.58174    1.000
    Si4825   Si       0.80328    0.86376    0.50180    1.000
    Si4826   Si       0.79190    0.77804    0.61834    1.000
    Si4827   Si       0.79829    0.78558    0.49518    1.000
    N4828    N        0.75464    0.97273    0.57699    1.000
    Si4829   Si       0.80673    0.93306    0.52462    1.000
    Si4830   Si       0.79238    0.99035    0.57106    1.000
    N4831    N        0.76549    0.93812    0.51843    1.000
    N4832    N        0.76548    0.80012    0.64360    1.000
    N4833    N        0.80050    0.85489    0.71920    1.000
    Si4834   Si       0.76618    0.84371    0.74098    1.000
    N4835    N        0.80407    0.94179    0.62792    1.000
    Si4836   Si       0.79838    0.94317    0.72372    1.000
    Si4837   Si       0.79361    0.98526    0.63939    1.000
    Si4838   Si       0.79029    0.90743    0.65185    1.000
    N4839    N        0.75662    0.88618    0.63460    1.000
    N4840    N        0.78012    0.92727    0.68907    1.000
    N4841    N        0.76682    0.80270    0.76029    1.000
    Si4842   Si       0.76877    0.83528    0.86200    1.000
    N4843    N        0.80034    0.86371    0.84951    1.000
    N4844    N        0.78954    0.79723    0.86153    1.000
    Si4845   Si       0.78910    0.76325    0.76270    1.000
    Si4846   Si       0.79246    0.90553    0.84702    1.000
    N4847    N        0.79268    0.91445    0.80505    1.000
    N4848    N        0.80374    0.99513    0.80770    1.000
    N4849    N        0.75770    0.93668    0.74480    1.000
    Si4850   Si       0.75616    0.91549    0.78160    1.000
    N4851    N        0.80347    0.79211    0.98187    1.000
    Si4852   Si       0.78076    0.76534    0.88944    1.000
    Si4853   Si       0.76689    0.86697    0.98646    1.000
    Si4854   Si       0.76224    0.79521    0.99416    1.000
    N4855    N        0.80928    0.86003    0.99475    1.000
    N4856    N        0.75378    0.84627    0.90118    1.000
    N4857    N        0.77860    0.89019    0.94846    1.000
    Si4858   Si       0.78769    0.97738    0.94605    1.000
    N4859    N        0.77672    0.98040    0.99392    1.000
    N4860    N        0.75786    0.90535    0.87197    1.000
    Si4861   Si       0.75595    0.88789    0.91209    1.000
    N4862    N        0.85176    0.05171    0.03366    1.000
    N4863    N        0.84934    0.10124    0.07944    1.000
    N4864    N        0.84892    0.11457    0.00749    1.000
    Si4865   Si       0.86423    0.07909    0.11329    1.000
    Si4866   Si       0.81059    0.04220    0.04571    1.000
    Si4867   Si       0.82776    0.13599    0.09411    1.000
    N4868    N        0.81757    0.22771    0.04130    1.000
    Si4869   Si       0.82791    0.15157    0.01802    1.000
    Si4870   Si       0.85397    0.21747    0.02055    1.000
    N4871    N        0.82670    0.16242    0.05969    1.000
    N4872    N        0.83391    0.07928    0.14261    1.000
    Si4873   Si       0.83202    0.03120    0.22826    1.000
    N4874    N        0.81938    0.02683    0.18698    1.000
    N4875    N        0.86893    0.00959    0.22976    1.000
    N4876    N        0.83907    0.07144    0.24611    1.000
    N4877    N        0.85015    0.15334    0.12887    1.000
    N4878    N        0.86713    0.25109    0.21975    1.000
    N4879    N        0.84767    0.21215    0.16864    1.000
    Si4880   Si       0.82711    0.18722    0.14125    1.000
    Si4881   Si       0.85038    0.21169    0.21155    1.000
    N4882    N        0.83979    0.08122    0.31084    1.000
    Si4883   Si       0.86901    0.08306    0.27566    1.000
    Si4884   Si       0.86684    0.07612    0.34371    1.000
    Si4885   Si       0.86043    0.15496    0.26013    1.000
    N4886    N        0.85431    0.17454    0.29769    1.000
    Si4887   Si       0.83306    0.19065    0.33134    1.000
    N4888    N        0.86526    0.21470    0.34925    1.000
    N4889    N        0.81133    0.16871    0.36417    1.000
    N4890    N        0.82227    0.13892    0.24716    1.000
    Si4891   Si       0.86459    0.25765    0.35416    1.000
    N4892    N        0.84899    0.10135    0.37489    1.000
    N4893    N        0.85126    0.08271    0.46134    1.000
    N4894    N        0.83689    0.02508    0.42287    1.000
    Si4895   Si       0.82657    0.04740    0.45797    1.000
    N4896    N        0.83987    0.02126    0.48995    1.000
    N4897    N        0.84919    0.15504    0.41804    1.000
    N4898    N        0.82669    0.21571    0.43080    1.000
    Si4899   Si       0.86394    0.19200    0.43384    1.000
    Si4900   Si       0.83782    0.03508    0.53061    1.000
    N4901    N        0.84407    0.09072    0.60510    1.000
    N4902    N        0.84658    0.07779    0.53257    1.000
    Si4903   Si       0.85550    0.10585    0.56541    1.000
    Si4904   Si       0.85768    0.00814    0.59809    1.000
    N4905    N        0.86578    0.01293    0.55703    1.000
    Si4906   Si       0.84074    0.10281    0.49733    1.000
    N4907    N        0.81837    0.13050    0.56490    1.000
    Si4908   Si       0.83139    0.21538    0.56619    1.000
    N4909    N        0.83185    0.19109    0.53037    1.000
    N4910    N        0.85990    0.19623    0.59235    1.000
    Si4911   Si       0.85560    0.06425    0.70689    1.000
    N4912    N        0.86608    0.09064    0.67336    1.000
    N4913    N        0.81362    0.05440    0.71645    1.000
    Si4914   Si       0.85845    0.19493    0.63568    1.000
    N4915    N        0.83256    0.21128    0.71085    1.000
    N4916    N        0.86522    0.14526    0.71924    1.000
    Si4917   Si       0.83092    0.16933    0.72458    1.000
    N4918    N        0.84486    0.15987    0.65623    1.000
    N4919    N        0.82855    0.22654    0.64505    1.000
    Si4920   Si       0.83859    0.24225    0.68367    1.000
    N4921    N        0.83042    0.06824    0.83736    1.000
    N4922    N        0.85868    0.01861    0.77694    1.000
    N4923    N        0.81958    0.11119    0.78459    1.000
    Si4924   Si       0.81311    0.04100    0.86445    1.000
    N4925    N        0.86820    0.08131    0.74662    1.000
    N4926    N        0.83160    0.15662    0.83650    1.000
    Si4927   Si       0.84100    0.14724    0.79574    1.000
    N4928    N        0.84141    0.22171    0.82190    1.000
    Si4929   Si       0.85256    0.21095    0.78210    1.000
    N4930    N        0.82358    0.17887    0.76837    1.000
    Si4931   Si       0.85174    0.19992    0.85905    1.000
    N4932    N        0.83582    0.24807    0.76534    1.000
    N4933    N        0.81642    0.06093    0.90267    1.000
    Si4934   Si       0.83474    0.04138    0.93510    1.000
    Si4935   Si       0.85164    0.10906    0.96406    1.000
    N4936    N        0.86390    0.06946    0.95215    1.000
    N4937    N        0.81075    0.11674    0.94600    1.000
    N4938    N        0.86345    0.17118    0.89012    1.000
    N4939    N        0.82295    0.22816    0.88001    1.000
    Si4940   Si       0.84485    0.13546    0.87311    1.000
    Si4941   Si       0.85664    0.25728    0.88842    1.000
    N4942    N        0.85129    0.18092    0.99757    1.000
    Si4943   Si       0.84990    0.30904    0.05616    1.000
    N4944    N        0.85109    0.32627    0.09601    1.000
    Si4945   Si       0.86397    0.37199    0.00946    1.000
    Si4946   Si       0.86702    0.36147    0.11633    1.000
    Si4947   Si       0.86927    0.26376    0.10724    1.000
    N4948    N        0.82613    0.26881    0.11588    1.000
    Si4949   Si       0.85199    0.48988    0.02883    1.000
    N4950    N        0.82691    0.39560    0.00777    1.000
    N4951    N        0.86460    0.47403    0.11665    1.000
    N4952    N        0.82794    0.46788    0.99851    1.000
    Si4953   Si       0.82121    0.47260    0.11844    1.000
    Si4954   Si       0.82317    0.31020    0.12345    1.000
    N4955    N        0.83609    0.32180    0.16352    1.000
    Si4956   Si       0.81457    0.34696    0.19065    1.000
    Si4957   Si       0.83467    0.41214    0.15926    1.000
    N4958    N        0.82541    0.38941    0.19595    1.000
    N4959    N        0.83255    0.38598    0.12422    1.000
    N4960    N        0.85821    0.48876    0.18820    1.000
    N4961    N        0.81252    0.45004    0.15472    1.000
    N4962    N        0.81628    0.44100    0.24041    1.000
    N4963    N        0.84681    0.27178    0.31674    1.000
    Si4964   Si       0.86117    0.30589    0.29788    1.000
    N4965    N        0.82587    0.32241    0.27953    1.000
    Si4966   Si       0.81726    0.36594    0.28662    1.000
    N4967    N        0.85321    0.38965    0.28797    1.000
    N4968    N        0.85401    0.46105    0.29279    1.000
    N4969    N        0.85053    0.42603    0.35509    1.000
    Si4970   Si       0.83162    0.44989    0.32787    1.000
    Si4971   Si       0.85211    0.42743    0.26211    1.000
    Si4972   Si       0.86116    0.50092    0.28074    1.000
    N4973    N        0.81326    0.49152    0.33205    1.000
    Si4974   Si       0.85041    0.35937    0.46886    1.000
    N4975    N        0.83846    0.26845    0.38618    1.000
    Si4976   Si       0.83384    0.25890    0.42796    1.000
    N4977    N        0.81129    0.33579    0.46591    1.000
    N4978    N        0.86708    0.27105    0.45280    1.000
    N4979    N        0.86440    0.39403    0.49420    1.000
    N4980    N        0.85158    0.50118    0.45229    1.000
    Si4981   Si       0.83133    0.48519    0.41814    1.000
    N4982    N        0.83078    0.38324    0.43548    1.000
    N4983    N        0.85628    0.49591    0.38295    1.000
    N4984    N        0.82779    0.44266    0.41727    1.000
    Si4985   Si       0.86029    0.41388    0.42484    1.000
    N4986    N        0.82788    0.32609    0.60270    1.000
    Si4987   Si       0.81851    0.35767    0.56952    1.000
    N4988    N        0.85763    0.37614    0.56036    1.000
    Si4989   Si       0.81246    0.29415    0.57507    1.000
    N4990    N        0.83519    0.25783    0.56662    1.000
    N4991    N        0.86812    0.33131    0.50212    1.000
    N4992    N        0.81124    0.32427    0.54231    1.000
    N4993    N        0.82765    0.46380    0.58451    1.000
    N4994    N        0.82767    0.49292    0.51932    1.000
    Si4995   Si       0.84963    0.41020    0.53170    1.000
    Si4996   Si       0.84996    0.45557    0.62140    1.000
    Si4997   Si       0.81966    0.31187    0.70871    1.000
    N4998    N        0.84017    0.32422    0.67042    1.000
    N4999    N        0.85560    0.31088    0.73403    1.000
    Si5000   Si       0.81076    0.33720    0.64222    1.000
    N5001    N        0.83367    0.39975    0.69795    1.000
    Si5002   Si       0.82935    0.40746    0.65583    1.000
    N5003    N        0.81996    0.44971    0.65301    1.000
    N5004    N        0.86059    0.41217    0.62231    1.000
    Si5005   Si       0.85347    0.40285    0.73582    1.000
    Si5006   Si       0.84287    0.31105    0.83550    1.000
    N5007    N        0.83341    0.35257    0.83752    1.000
    N5008    N        0.85786    0.30937    0.79517    1.000
    N5009    N        0.84260    0.37538    0.76853    1.000
    Si5010   Si       0.81628    0.37480    0.80473    1.000
    Si5011   Si       0.86502    0.28029    0.76316    1.000
    Si5012   Si       0.86805    0.34052    0.76660    1.000
    Si5013   Si       0.85234    0.37099    0.87080    1.000
    N5014    N        0.82137    0.49985    0.77730    1.000
    N5015    N        0.84786    0.43999    0.75727    1.000
    N5016    N        0.84997    0.41392    0.86535    1.000
    Si5017   Si       0.85139    0.50045    0.80716    1.000
    Si5018   Si       0.80641    0.42169    0.86378    1.000
    N5019    N        0.86286    0.29485    0.87097    1.000
    N5020    N        0.82581    0.31256    0.96157    1.000
    Si5021   Si       0.85242    0.33684    0.94143    1.000
    Si5022   Si       0.84004    0.27256    0.96851    1.000
    N5023    N        0.83761    0.36204    0.91067    1.000
    N5024    N        0.86292    0.26017    0.93400    1.000
    N5025    N        0.87129    0.36558    0.96861    1.000
    Si5026   Si       0.81527    0.46150    0.92528    1.000
    Si5027   Si       0.84172    0.42960    0.98432    1.000
    N5028    N        0.85149    0.48250    0.93408    1.000
    N5029    N        0.82285    0.42233    0.94496    1.000
    N5030    N        0.84179    0.56447    0.09002    1.000
    N5031    N        0.84072    0.57320    0.01603    1.000
    Si5032   Si       0.83426    0.61759    0.01769    1.000
    Si5033   Si       0.82410    0.55356    0.05201    1.000
    N5034    N        0.82220    0.51083    0.05250    1.000
    Si5035   Si       0.81171    0.55410    0.12071    1.000
    N5036    N        0.84259    0.66544    0.08203    1.000
    N5037    N        0.84882    0.69749    0.02217    1.000
    Si5038   Si       0.86912    0.66735    0.04762    1.000
    N5039    N        0.84866    0.55462    0.20967    1.000
    N5040    N        0.82711    0.58036    0.15213    1.000
    Si5041   Si       0.86316    0.56792    0.17185    1.000
    Si5042   Si       0.81486    0.62336    0.14772    1.000
    Si5043   Si       0.86707    0.51682    0.21910    1.000
    Si5044   Si       0.85371    0.68149    0.12012    1.000
    Si5045   Si       0.85156    0.73911    0.14690    1.000
    N5046    N        0.85132    0.64380    0.21787    1.000
    N5047    N        0.82104    0.71028    0.13101    1.000
    N5048    N        0.85465    0.73059    0.18944    1.000
    N5049    N        0.85019    0.64744    0.14661    1.000
    N5050    N        0.85095    0.55823    0.35318    1.000
    Si5051   Si       0.82922    0.52005    0.35814    1.000
    N5052    N        0.84571    0.57351    0.27914    1.000
    N5053    N        0.83067    0.51227    0.24888    1.000
    Si5054   Si       0.82426    0.56242    0.24339    1.000
    Si5055   Si       0.86803    0.56792    0.31534    1.000
    N5056    N        0.82738    0.63306    0.32529    1.000
    N5057    N        0.84965    0.68861    0.28090    1.000
    N5058    N        0.84239    0.74147    0.32898    1.000
    Si5059   Si       0.86621    0.70599    0.31696    1.000
    Si5060   Si       0.86791    0.63414    0.34179    1.000
    Si5061   Si       0.80919    0.69662    0.26996    1.000
    Si5062   Si       0.86878    0.57619    0.38935    1.000
    N5063    N        0.86786    0.62064    0.38274    1.000
    N5064    N        0.82459    0.54862    0.48545    1.000
    N5065    N        0.84014    0.56127    0.41853    1.000
    Si5066   Si       0.85665    0.54486    0.45665    1.000
    N5067    N        0.84875    0.61160    0.48736    1.000
    N5068    N        0.87055    0.67614    0.48482    1.000
    Si5069   Si       0.87131    0.64566    0.41732    1.000
    Si5070   Si       0.83757    0.65215    0.47613    1.000
    N5071    N        0.82439    0.74727    0.39090    1.000
    N5072    N        0.82938    0.65159    0.43214    1.000
    N5073    N        0.84175    0.72926    0.45196    1.000
    N5074    N        0.83399    0.58261    0.54865    1.000
    Si5075   Si       0.84508    0.62009    0.56713    1.000
    N5076    N        0.82382    0.53654    0.60996    1.000
    N5077    N        0.82944    0.60528    0.60648    1.000
    Si5078   Si       0.82389    0.58375    0.50763    1.000
    Si5079   Si       0.86436    0.52235    0.59977    1.000
    N5080    N        0.84012    0.65607    0.54449    1.000
    N5081    N        0.83583    0.72242    0.60363    1.000
    Si5082   Si       0.86833    0.73183    0.57712    1.000
    N5083    N        0.86789    0.72376    0.53446    1.000
    Si5084   Si       0.87291    0.68050    0.52812    1.000
    Si5085   Si       0.82891    0.54343    0.70431    1.000
    N5086    N        0.82816    0.57319    0.67121    1.000
    Si5087   Si       0.83687    0.61014    0.65046    1.000
    N5088    N        0.81277    0.51226    0.67976    1.000
    N5089    N        0.83832    0.61528    0.74602    1.000
    Si5090   Si       0.83463    0.64483    0.71562    1.000
    Si5091   Si       0.87050    0.69557    0.71346    1.000
    N5092    N        0.82989    0.68798    0.72635    1.000
    Si5093   Si       0.84235    0.73063    0.64771    1.000
    N5094    N        0.81659    0.63903    0.67542    1.000
    N5095    N        0.83178    0.62089    0.81470    1.000
    Si5096   Si       0.85106    0.54902    0.86348    1.000
    N5097    N        0.83334    0.51235    0.84532    1.000
    Si5098   Si       0.86238    0.62509    0.78338    1.000
    N5099    N        0.81376    0.57135    0.86455    1.000
    Si5100   Si       0.83131    0.66419    0.81951    1.000
    N5101    N        0.85151    0.67269    0.86178    1.000
    N5102    N        0.86572    0.66675    0.79295    1.000
    N5103    N        0.86778    0.53929    0.90227    1.000
    Si5104   Si       0.85772    0.57340    0.92682    1.000
    N5105    N        0.81652    0.56486    0.93667    1.000
    N5106    N        0.82332    0.62093    0.97720    1.000
    N5107    N        0.86718    0.61277    0.90527    1.000
    Si5108   Si       0.84308    0.64916    0.89781    1.000
    N5109    N        0.83055    0.67773    0.93353    1.000
    N5110    N        0.84285    0.73649    0.96895    1.000
    N5111    N        0.81610    0.75338    0.90648    1.000
    Si5112   Si       0.81849    0.72032    0.93780    1.000
    Si5113   Si       0.85221    0.79501    0.09469    1.000
    N5114    N        0.83552    0.86724    0.11496    1.000
    N5115    N        0.81604    0.81154    0.07696    1.000
    Si5116   Si       0.83281    0.76577    0.99987    1.000
    N5117    N        0.86012    0.80202    0.00220    1.000
    Si5118   Si       0.86961    0.86337    0.08717    1.000
    N5119    N        0.81762    0.93429    0.02800    1.000
    Si5120   Si       0.81530    0.97429    0.01534    1.000
    Si5121   Si       0.83422    0.89331    0.02158    1.000
    Si5122   Si       0.82244    0.97676    0.08944    1.000
    N5123    N        0.86565    0.97255    0.09847    1.000
    N5124    N        0.81376    0.99813    0.05230    1.000
    N5125    N        0.84910    0.99203    0.99383    1.000
    Si5126   Si       0.82840    0.87075    0.15630    1.000
    N5127    N        0.83013    0.83464    0.17689    1.000
    Si5128   Si       0.86330    0.80889    0.16591    1.000
    Si5129   Si       0.84697    0.76510    0.21808    1.000
    N5130    N        0.85099    0.78107    0.13688    1.000
    N5131    N        0.84569    0.89808    0.18379    1.000
    Si5132   Si       0.81897    0.99199    0.16305    1.000
    N5133    N        0.86036    0.97891    0.16586    1.000
    Si5134   Si       0.84648    0.82734    0.33367    1.000
    N5135    N        0.82593    0.80316    0.30470    1.000
    N5136    N        0.84993    0.86235    0.25122    1.000
    N5137    N        0.86098    0.80101    0.36266    1.000
    Si5138   Si       0.83030    0.76232    0.29336    1.000
    Si5139   Si       0.85724    0.75996    0.36454    1.000
    N5140    N        0.81579    0.85252    0.35110    1.000
    N5141    N        0.85948    0.76001    0.26011    1.000
    N5142    N        0.84519    0.91500    0.35132    1.000
    Si5143   Si       0.81324    0.89094    0.33272    1.000
    N5144    N        0.83684    0.84425    0.48194    1.000
    Si5145   Si       0.83339    0.83671    0.43937    1.000
    N5146    N        0.85004    0.79758    0.42859    1.000
    Si5147   Si       0.82465    0.76284    0.43142    1.000
    N5148    N        0.86393    0.85590    0.41386    1.000
    N5149    N        0.82267    0.95114    0.48725    1.000
    Si5150   Si       0.81666    0.93029    0.38141    1.000
    Si5151   Si       0.85359    0.98247    0.48268    1.000
    N5152    N        0.81472    0.91631    0.42392    1.000
    Si5153   Si       0.84054    0.92987    0.45463    1.000
    N5154    N        0.81216    0.97359    0.37285    1.000
    N5155    N        0.86339    0.96423    0.44432    1.000
    Si5156   Si       0.84895    0.81127    0.58166    1.000
    N5157    N        0.85817    0.83848    0.54833    1.000
    Si5158   Si       0.86178    0.81853    0.51163    1.000
    N5159    N        0.83933    0.78077    0.50525    1.000
    N5160    N        0.85216    0.83070    0.62016    1.000
    Si5161   Si       0.85698    0.88286    0.55260    1.000
    Si5162   Si       0.83564    0.93795    0.59676    1.000
    N5163    N        0.84962    0.89614    0.59351    1.000
    N5164    N        0.82162    0.89364    0.52723    1.000
    N5165    N        0.81611    0.95567    0.55968    1.000
    N5166    N        0.86634    0.96582    0.60520    1.000
    N5167    N        0.81453    0.00486    0.60500    1.000
    Si5168   Si       0.85555    0.80111    0.65187    1.000
    Si5169   Si       0.83567    0.85924    0.69609    1.000
    N5170    N        0.82557    0.77115    0.64627    1.000
    N5171    N        0.85707    0.82239    0.68952    1.000
    Si5172   Si       0.85845    0.87254    0.62963    1.000
    N5173    N        0.82689    0.88213    0.65892    1.000
    Si5174   Si       0.86779    0.92033    0.72774    1.000
    N5175    N        0.81804    0.98223    0.73456    1.000
    Si5176   Si       0.84873    0.98619    0.70031    1.000
    N5177    N        0.81455    0.99540    0.67603    1.000
    Si5178   Si       0.85250    0.79960    0.77333    1.000
    Si5179   Si       0.83770    0.85021    0.83297    1.000
    N5180    N        0.83326    0.81410    0.80808    1.000
    N5181    N        0.85043    0.76489    0.84811    1.000
    Si5182   Si       0.81441    0.78222    0.83058    1.000
    N5183    N        0.86506    0.84978    0.86596    1.000
    N5184    N        0.85083    0.87792    0.80032    1.000
    N5185    N        0.82656    0.77674    0.74723    1.000
    N5186    N        0.85113    0.95412    0.80066    1.000
    Si5187   Si       0.83132    0.91542    0.78816    1.000
    Si5188   Si       0.82662    0.96978    0.83594    1.000
    Si5189   Si       0.83333    0.98585    0.77632    1.000
    N5190    N        0.83246    0.00285    0.86591    1.000
    N5191    N        0.81611    0.93778    0.86116    1.000
    N5192    N        0.82685    0.92078    0.74672    1.000
    Si5193   Si       0.83108    0.82491    0.98000    1.000
    N5194    N        0.84018    0.84306    0.94297    1.000
    Si5195   Si       0.85952    0.86286    0.90711    1.000
    Si5196   Si       0.85537    0.76596    0.89052    1.000
    Si5197   Si       0.82067    0.88207    0.95485    1.000
    N5198    N        0.82567    0.96067    0.93270    1.000
    Si5199   Si       0.86076    0.97739    0.95384    1.000
    N5200    N        0.83361    0.89833    0.91306    1.000
    N5201    N        0.85178    0.90088    0.98018    1.000
    Si5202   Si       0.84011    0.93827    0.89836    1.000
    N5203    N        0.90923    0.09831    0.04964    1.000
    N5204    N        0.88737    0.04376    0.10299    1.000
    Si5205   Si       0.87595    0.02140    0.01517    1.000
    Si5206   Si       0.92368    0.06555    0.11588    1.000
    N5207    N        0.90208    0.10287    0.11803    1.000
    Si5208   Si       0.86855    0.09284    0.04131    1.000
    Si5209   Si       0.90904    0.20366    0.08244    1.000
    N5210    N        0.88853    0.21767    0.04672    1.000
    N5211    N        0.90877    0.16185    0.09214    1.000
    N5212    N        0.88417    0.22306    0.11370    1.000
    N5213    N        0.92034    0.16222    0.00617    1.000
    Si5214   Si       0.89754    0.25880    0.03327    1.000
    N5215    N        0.91257    0.21603    0.18518    1.000
    Si5216   Si       0.90926    0.17578    0.20048    1.000
    Si5217   Si       0.88422    0.23250    0.15651    1.000
    N5218    N        0.91717    0.15417    0.16383    1.000
    N5219    N        0.87427    0.17556    0.22601    1.000
    Si5220   Si       0.89207    0.14578    0.12961    1.000
    N5221    N        0.89898    0.05318    0.27981    1.000
    N5222    N        0.88701    0.12180    0.26764    1.000
    N5223    N        0.90835    0.08630    0.33724    1.000
    Si5224   Si       0.90326    0.01909    0.25511    1.000
    Si5225   Si       0.92586    0.05343    0.31422    1.000
    Si5226   Si       0.92425    0.12665    0.34015    1.000
    N5227    N        0.92643    0.01436    0.33479    1.000
    Si5228   Si       0.93065    0.13091    0.26342    1.000
    N5229    N        0.86971    0.03722    0.36289    1.000
    N5230    N        0.89321    0.15044    0.35870    1.000
    Si5231   Si       0.89783    0.19175    0.36721    1.000
    N5232    N        0.90512    0.11857    0.42429    1.000
    Si5233   Si       0.87738    0.03145    0.40668    1.000
    Si5234   Si       0.89397    0.08722    0.45340    1.000
    N5235    N        0.90546    0.05182    0.43149    1.000
    Si5236   Si       0.87489    0.13025    0.39409    1.000
    N5237    N        0.91318    0.08430    0.49355    1.000
    N5238    N        0.89844    0.20100    0.40941    1.000
    N5239    N        0.87717    0.19878    0.47449    1.000
    N5240    N        0.92818    0.24025    0.45616    1.000
    Si5241   Si       0.88985    0.24091    0.47632    1.000
    N5242    N        0.89692    0.11568    0.56194    1.000
    Si5243   Si       0.90473    0.11761    0.51916    1.000
    Si5244   Si       0.92322    0.12675    0.59507    1.000
    Si5245   Si       0.90222    0.19909    0.58073    1.000
    N5246    N        0.90491    0.18589    0.53794    1.000
    N5247    N        0.90832    0.24189    0.57575    1.000
    N5248    N        0.92332    0.16873    0.60495    1.000
    N5249    N        0.86867    0.13615    0.50519    1.000
    Si5250   Si       0.86984    0.17968    0.51191    1.000
    N5251    N        0.88096    0.25498    0.51590    1.000
    N5252    N        0.87061    0.02294    0.70341    1.000
    N5253    N        0.88191    0.03298    0.62483    1.000
    Si5254   Si       0.87417    0.07662    0.63287    1.000
    N5255    N        0.91674    0.09558    0.62734    1.000
    Si5256   Si       0.91365    0.02139    0.70670    1.000
    Si5257   Si       0.92159    0.01659    0.63398    1.000
    N5258    N        0.92518    0.11091    0.72929    1.000
    Si5259   Si       0.92661    0.18153    0.64721    1.000
    N5260    N        0.89571    0.21408    0.64735    1.000
    N5261    N        0.91221    0.15069    0.67274    1.000
    Si5262   Si       0.87227    0.13500    0.67892    1.000
    Si5263   Si       0.90580    0.25491    0.65355    1.000
    N5264    N        0.89379    0.06820    0.81196    1.000
    Si5265   Si       0.88502    0.05115    0.77262    1.000
    Si5266   Si       0.87198    0.06742    0.84847    1.000
    N5267    N        0.87446    0.10461    0.87057    1.000
    Si5268   Si       0.88564    0.11983    0.74736    1.000
    N5269    N        0.91947    0.03797    0.74603    1.000
    Si5270   Si       0.92461    0.23782    0.78135    1.000
    N5271    N        0.88376    0.13940    0.78630    1.000
    N5272    N        0.89420    0.20537    0.77706    1.000
    Si5273   Si       0.91440    0.16900    0.79356    1.000
    Si5274   Si       0.92246    0.22208    0.85418    1.000
    N5275    N        0.92164    0.18250    0.83392    1.000
    N5276    N        0.88303    0.22746    0.87177    1.000
    N5277    N        0.89093    0.03280    0.86682    1.000
    Si5278   Si       0.89701    0.04174    0.94726    1.000
    N5279    N        0.90810    0.03322    0.98781    1.000
    N5280    N        0.86913    0.01227    0.92873    1.000
    Si5281   Si       0.89478    0.24140    0.95855    1.000
    N5282    N        0.88294    0.13889    0.94796    1.000
    Si5283   Si       0.89593    0.16794    0.91721    1.000
    N5284    N        0.90089    0.20008    0.94895    1.000
    Si5285   Si       0.88872    0.16900    0.97974    1.000
    N5286    N        0.87170    0.25159    0.99585    1.000
    Si5287   Si       0.90640    0.35801    0.05120    1.000
    N5288    N        0.87880    0.27674    0.06611    1.000
    N5289    N        0.89980    0.37223    0.08982    1.000
    N5290    N        0.87261    0.33556    0.03207    1.000
    N5291    N        0.87797    0.46174    0.05022    1.000
    N5292    N        0.89623    0.39395    0.02960    1.000
    Si5293   Si       0.90161    0.43676    0.02293    1.000
    Si5294   Si       0.89451    0.47847    0.08678    1.000
    Si5295   Si       0.89820    0.27663    0.23162    1.000
    Si5296   Si       0.88117    0.31373    0.16571    1.000
    N5297    N        0.88683    0.27522    0.14593    1.000
    N5298    N        0.90378    0.31033    0.20083    1.000
    N5299    N        0.88872    0.35372    0.15299    1.000
    N5300    N        0.92587    0.38001    0.20467    1.000
    Si5301   Si       0.87865    0.46836    0.15753    1.000
    Si5302   Si       0.90296    0.39076    0.17072    1.000
    Si5303   Si       0.92153    0.39718    0.24364    1.000
    N5304    N        0.92142    0.48054    0.15882    1.000
    N5305    N        0.87609    0.42406    0.16219    1.000
    N5306    N        0.90628    0.27066    0.35275    1.000
    Si5307   Si       0.91591    0.31241    0.34563    1.000
    N5308    N        0.88208    0.33494    0.32426    1.000
    N5309    N        0.89020    0.29541    0.26826    1.000
    Si5310   Si       0.88967    0.37485    0.30672    1.000
    N5311    N        0.91686    0.36635    0.27195    1.000
    N5312    N        0.91221    0.40233    0.32950    1.000
    Si5313   Si       0.89079    0.41617    0.36422    1.000
    Si5314   Si       0.91977    0.46202    0.25851    1.000
    N5315    N        0.89190    0.49535    0.24945    1.000
    N5316    N        0.92766    0.46943    0.30110    1.000
    N5317    N        0.91149    0.45476    0.36724    1.000
    N5318    N        0.89268    0.42870    0.24621    1.000
    Si5319   Si       0.90814    0.35580    0.41565    1.000
    Si5320   Si       0.88534    0.30575    0.47050    1.000
    N5321    N        0.88033    0.33931    0.44309    1.000
    N5322    N        0.92351    0.33216    0.38321    1.000
    N5323    N        0.89068    0.39269    0.40197    1.000
    N5324    N        0.91425    0.49657    0.42319    1.000
    Si5325   Si       0.89428    0.42440    0.48970    1.000
    Si5326   Si       0.89182    0.48247    0.45643    1.000
    N5327    N        0.88531    0.43852    0.44944    1.000
    Si5328   Si       0.90019    0.49336    0.38244    1.000
    Si5329   Si       0.87719    0.26778    0.55673    1.000
    N5330    N        0.87894    0.30916    0.56431    1.000
    Si5331   Si       0.88427    0.34288    0.54000    1.000
    N5332    N        0.90189    0.35330    0.61155    1.000
    Si5333   Si       0.87335    0.32039    0.60585    1.000
    Si5334   Si       0.87010    0.48820    0.52593    1.000
    Si5335   Si       0.88552    0.38884    0.59511    1.000
    N5336    N        0.91813    0.41061    0.57146    1.000
    Si5337   Si       0.92084    0.44243    0.54245    1.000
    N5338    N        0.87943    0.44423    0.52673    1.000
    N5339    N        0.89813    0.49728    0.49540    1.000
    N5340    N        0.88280    0.50501    0.56457    1.000
    N5341    N        0.88719    0.29080    0.63460    1.000
    Si5342   Si       0.92221    0.37293    0.69895    1.000
    N5343    N        0.91246    0.32983    0.69247    1.000
    Si5344   Si       0.87841    0.30626    0.67634    1.000
    N5345    N        0.87533    0.26253    0.68767    1.000
    N5346    N        0.92537    0.45906    0.66714    1.000
    N5347    N        0.87509    0.48891    0.62956    1.000
    N5348    N        0.89599    0.39550    0.72756    1.000
    Si5349   Si       0.91417    0.49369    0.64623    1.000
    N5350    N        0.91131    0.34697    0.76287    1.000
    N5351    N        0.90600    0.27254    0.76504    1.000
    N5352    N        0.89391    0.35683    0.86592    1.000
    Si5353   Si       0.88394    0.45270    0.77663    1.000
    N5354    N        0.92171    0.43054    0.78000    1.000
    N5355    N        0.90329    0.48217    0.75145    1.000
    Si5356   Si       0.88136    0.44039    0.85180    1.000
    N5357    N        0.92261    0.42244    0.85059    1.000
    N5358    N        0.87028    0.46320    0.81611    1.000
    Si5359   Si       0.89721    0.31724    0.88544    1.000
    N5360    N        0.89273    0.32414    0.92881    1.000
    Si5361   Si       0.90849    0.36001    0.94624    1.000
    N5362    N        0.92777    0.38570    0.91551    1.000
    N5363    N        0.91107    0.49934    0.94428    1.000
    N5364    N        0.88322    0.44419    0.98482    1.000
    N5365    N        0.89685    0.46856    0.88271    1.000
    Si5366   Si       0.87815    0.48366    0.96869    1.000
    Si5367   Si       0.88471    0.50007    0.90884    1.000
    Si5368   Si       0.91465    0.61316    0.01892    1.000
    N5369    N        0.91558    0.56947    0.02482    1.000
    N5370    N        0.89848    0.52069    0.08057    1.000
    N5371    N        0.91627    0.57983    0.09880    1.000
    Si5372   Si       0.88099    0.55291    0.10477    1.000
    Si5373   Si       0.88182    0.55587    0.00218    1.000
    N5374    N        0.87586    0.51328    0.00198    1.000
    Si5375   Si       0.92573    0.55092    0.06498    1.000
    N5376    N        0.87513    0.63052    0.02726    1.000
    Si5377   Si       0.89717    0.72728    0.08467    1.000
    N5378    N        0.90352    0.68804    0.06429    1.000
    N5379    N        0.90191    0.74513    0.00404    1.000
    N5380    N        0.89131    0.60161    0.17865    1.000
    N5381    N        0.90865    0.53756    0.20500    1.000
    N5382    N        0.88445    0.54034    0.14527    1.000
    Si5383   Si       0.92046    0.52322    0.16420    1.000
    N5384    N        0.90463    0.67248    0.18035    1.000
    N5385    N        0.92329    0.74216    0.18733    1.000
    N5386    N        0.89540    0.70519    0.23677    1.000
    N5387    N        0.88121    0.71561    0.12330    1.000
    Si5388   Si       0.87423    0.64164    0.18092    1.000
    Si5389   Si       0.89516    0.71288    0.19559    1.000
    N5390    N        0.89329    0.60222    0.32339    1.000
    N5391    N        0.88215    0.52703    0.30753    1.000
    N5392    N        0.92566    0.51649    0.35438    1.000
    Si5393   Si       0.92160    0.51097    0.31230    1.000
    Si5394   Si       0.89596    0.73770    0.26593    1.000
    N5395    N        0.90467    0.72591    0.30697    1.000
    N5396    N        0.89977    0.64261    0.26327    1.000
    N5397    N        0.87481    0.67736    0.34799    1.000
    Si5398   Si       0.87140    0.66859    0.24831    1.000
    N5399    N        0.89278    0.56018    0.47590    1.000
    N5400    N        0.89842    0.62261    0.44126    1.000
    N5401    N        0.91435    0.57268    0.39247    1.000
    Si5402   Si       0.89115    0.60282    0.47945    1.000
    Si5403   Si       0.92996    0.60390    0.41929    1.000
    Si5404   Si       0.87872    0.70697    0.45373    1.000
    N5405    N        0.89555    0.74352    0.37584    1.000
    Si5406   Si       0.89895    0.70101    0.37721    1.000
    N5407    N        0.88907    0.68662    0.41611    1.000
    N5408    N        0.90352    0.73813    0.47646    1.000
    N5409    N        0.89055    0.61276    0.57156    1.000
    N5410    N        0.92236    0.61730    0.50532    1.000
    Si5411   Si       0.89677    0.59646    0.61243    1.000
    N5412    N        0.88735    0.55559    0.61488    1.000
    Si5413   Si       0.92103    0.53481    0.49729    1.000
    Si5414   Si       0.92644    0.51026    0.56787    1.000
    Si5415   Si       0.92026    0.63079    0.54592    1.000
    N5416    N        0.90987    0.67176    0.54769    1.000
    N5417    N        0.90718    0.72419    0.59577    1.000
    N5418    N        0.86757    0.53574    0.71883    1.000
    N5419    N        0.92415    0.55090    0.73996    1.000
    N5420    N        0.90789    0.59513    0.70089    1.000
    Si5421   Si       0.90327    0.55235    0.69987    1.000
    N5422    N        0.87902    0.62128    0.64493    1.000
    Si5423   Si       0.92202    0.59606    0.74350    1.000
    N5424    N        0.87707    0.65423    0.70547    1.000
    N5425    N        0.87277    0.72257    0.67855    1.000
    Si5426   Si       0.90294    0.63165    0.67772    1.000
    N5427    N        0.89609    0.59885    0.77879    1.000
    Si5428   Si       0.89762    0.56632    0.80806    1.000
    N5429    N        0.87871    0.57588    0.84600    1.000
    Si5430   Si       0.89181    0.52237    0.75356    1.000
    N5431    N        0.87962    0.53048    0.79259    1.000
    N5432    N        0.92684    0.62304    0.85323    1.000
    N5433    N        0.89347    0.72088    0.82662    1.000
    Si5434   Si       0.89674    0.69541    0.79017    1.000
    Si5435   Si       0.88194    0.70272    0.86390    1.000
    Si5436   Si       0.90500    0.75212    0.75080    1.000
    N5437    N        0.89096    0.71271    0.74861    1.000
    Si5438   Si       0.89963    0.60010    0.87739    1.000
    N5439    N        0.88212    0.57396    0.96360    1.000
    Si5440   Si       0.92299    0.58705    0.95434    1.000
    N5441    N        0.92534    0.62609    0.97898    1.000
    Si5442   Si       0.91089    0.71066    0.92237    1.000
    N5443    N        0.90146    0.69304    0.96031    1.000
    N5444    N        0.91564    0.68557    0.88577    1.000
    N5445    N        0.87716    0.72995    0.89974    1.000
    Si5446   Si       0.87447    0.71369    0.98796    1.000
    Si5447   Si       0.91347    0.78923    0.07091    1.000
    N5448    N        0.88413    0.82326    0.08816    1.000
    N5449    N        0.87666    0.76376    0.07475    1.000
    Si5450   Si       0.92062    0.83849    0.11547    1.000
    N5451    N        0.90875    0.87945    0.10024    1.000
    N5452    N        0.92454    0.80541    0.03253    1.000
    Si5453   Si       0.90259    0.78932    0.99876    1.000
    N5454    N        0.92587    0.93669    0.06283    1.000
    N5455    N        0.90041    0.00200    0.04633    1.000
    Si5456   Si       0.91308    0.89577    0.05774    1.000
    Si5457   Si       0.89522    0.00393    0.08911    1.000
    N5458    N        0.87040    0.88575    0.04819    1.000
    N5459    N        0.92308    0.98586    0.11948    1.000
    Si5460   Si       0.92669    0.84728    0.17715    1.000
    N5461    N        0.87807    0.79197    0.20161    1.000
    N5462    N        0.89459    0.83515    0.15142    1.000
    Si5463   Si       0.92037    0.77924    0.20969    1.000
    N5464    N        0.91728    0.88353    0.20082    1.000
    Si5465   Si       0.88826    0.96168    0.13543    1.000
    Si5466   Si       0.88587    0.91089    0.19036    1.000
    Si5467   Si       0.88193    0.97944    0.20315    1.000
    N5468    N        0.90122    0.92448    0.15201    1.000
    N5469    N        0.88299    0.94117    0.22120    1.000
    N5470    N        0.92336    0.98538    0.19138    1.000
    Si5471   Si       0.88017    0.86846    0.28088    1.000
    Si5472   Si       0.92454    0.85803    0.31949    1.000
    N5473    N        0.88260    0.84784    0.31852    1.000
    N5474    N        0.92291    0.86174    0.27445    1.000
    N5475    N        0.89163    0.96182    0.33291    1.000
    N5476    N        0.91119    0.98036    0.27116    1.000
    Si5477   Si       0.88209    0.92004    0.33005    1.000
    Si5478   Si       0.90247    0.93912    0.26032    1.000
    N5479    N        0.87934    0.91179    0.28761    1.000
    N5480    N        0.91781    0.89842    0.34218    1.000
    Si5481   Si       0.89057    0.99862    0.35444    1.000
    Si5482   Si       0.92632    0.97776    0.31125    1.000
    N5483    N        0.92648    0.86291    0.44412    1.000
    Si5484   Si       0.87737    0.81667    0.39936    1.000
    N5485    N        0.91988    0.80848    0.40136    1.000
    Si5486   Si       0.89955    0.95831    0.42552    1.000
    Si5487   Si       0.89188    0.88448    0.42880    1.000
    N5488    N        0.87557    0.90689    0.46413    1.000
    N5489    N        0.90779    0.91981    0.40613    1.000
    N5490    N        0.89952    0.99226    0.39675    1.000
    Si5491   Si       0.90654    0.76726    0.60759    1.000
    N5492    N        0.89880    0.79349    0.51326    1.000
    N5493    N        0.87358    0.77568    0.58009    1.000
    Si5494   Si       0.87645    0.75559    0.50633    1.000
    Si5495   Si       0.89999    0.92633    0.49697    1.000
    N5496    N        0.89364    0.90143    0.53549    1.000
    N5497    N        0.88918    0.96891    0.50692    1.000
    Si5498   Si       0.90243    0.99450    0.53968    1.000
    Si5499   Si       0.90707    0.95501    0.60963    1.000
    N5500    N        0.92714    0.91639    0.60297    1.000
    Si5501   Si       0.92925    0.88004    0.54665    1.000
    N5502    N        0.92698    0.97059    0.57114    1.000
    N5503    N        0.92534    0.84217    0.70625    1.000
    N5504    N        0.89111    0.77582    0.64730    1.000
    Si5505   Si       0.89184    0.81668    0.71707    1.000
    N5506    N        0.90537    0.77509    0.71532    1.000
    N5507    N        0.90069    0.87219    0.64423    1.000
    Si5508   Si       0.90779    0.75142    0.67949    1.000
    N5509    N        0.87330    0.95275    0.70074    1.000
    Si5510   Si       0.91564    0.95609    0.68425    1.000
    Si5511   Si       0.90844    0.87880    0.68645    1.000
    N5512    N        0.91923    0.97633    0.64771    1.000
    N5513    N        0.87079    0.88350    0.70685    1.000
    N5514    N        0.90979    0.80122    0.83371    1.000
    N5515    N        0.91837    0.86178    0.80366    1.000
    Si5516   Si       0.88591    0.86901    0.77633    1.000
    N5517    N        0.88306    0.77163    0.78229    1.000
    Si5518   Si       0.88641    0.76504    0.82513    1.000
    N5519    N        0.87644    0.83322    0.75585    1.000
    Si5520   Si       0.89966    0.82452    0.86908    1.000
    N5521    N        0.88990    0.91272    0.76346    1.000
    Si5522   Si       0.89597    0.94121    0.79624    1.000
    N5523    N        0.91390    0.92582    0.83198    1.000
    N5524    N        0.91784    0.97686    0.78436    1.000
    Si5525   Si       0.91571    0.94677    0.87046    1.000
    N5526    N        0.92063    0.80169    0.96075    1.000
    N5527    N        0.88509    0.79542    0.89942    1.000
    Si5528   Si       0.91938    0.78060    0.92200    1.000
    N5529    N        0.89506    0.88247    0.92300    1.000
    N5530    N        0.87644    0.95755    0.88516    1.000
    N5531    N        0.89466    0.94960    0.95259    1.000
    Si5532   Si       0.89011    0.90564    0.95776    1.000
    Si5533   Si       0.86992    0.99998    0.88579    1.000
    N5534    N        0.96424    0.03779    0.03200    1.000
    N5535    N        0.95618    0.07134    0.08758    1.000
    Si5536   Si       0.95154    0.08036    0.04151    1.000
    N5537    N        0.95984    0.09618    0.99901    1.000
    Si5538   Si       0.92835    0.12270    0.08247    1.000
    N5539    N        0.96393    0.12871    0.05267    1.000
    N5540    N        0.96494    0.13357    0.11222    1.000
    Si5541   Si       0.95453    0.13894    0.01081    1.000
    N5542    N        0.94689    0.22466    0.08744    1.000
    Si5543   Si       0.96551    0.24511    0.05319    1.000
    Si5544   Si       0.98535    0.12135    0.21897    1.000
    N5545    N        0.93655    0.04779    0.15115    1.000
    N5546    N        0.94095    0.03213    0.23692    1.000
    N5547    N        0.98053    0.13037    0.17734    1.000
    Si5548   Si       0.94232    0.00658    0.15496    1.000
    N5549    N        0.93633    0.16318    0.23412    1.000
    Si5550   Si       0.97055    0.22752    0.12512    1.000
    N5551    N        0.98041    0.21196    0.20828    1.000
    Si5552   Si       0.94801    0.23733    0.19528    1.000
    N5553    N        0.97998    0.19140    0.14674    1.000
    Si5554   Si       0.95809    0.15383    0.14983    1.000
    N5555    N        0.96310    0.25609    0.15907    1.000
    Si5556   Si       0.97228    0.18545    0.24272    1.000
    Si5557   Si       0.96678    0.06176    0.25703    1.000
    N5558    N        0.96456    0.06150    0.29871    1.000
    N5559    N        0.95561    0.10079    0.24196    1.000
    N5560    N        0.95538    0.12858    0.36988    1.000
    N5561    N        0.97124    0.20601    0.28153    1.000
    Si5562   Si       0.96013    0.18320    0.31665    1.000
    Si5563   Si       0.94108    0.24361    0.35874    1.000
    N5564    N        0.94055    0.14527    0.30332    1.000
    N5565    N        0.93214    0.20486    0.34166    1.000
    Si5566   Si       0.94925    0.05275    0.43068    1.000
    N5567    N        0.96699    0.02422    0.40222    1.000
    N5568    N        0.96134    0.03614    0.46995    1.000
    N5569    N        0.96533    0.09233    0.42576    1.000
    Si5570   Si       0.94794    0.12956    0.41236    1.000
    N5571    N        0.95479    0.16810    0.43090    1.000
    N5572    N        0.96079    0.22966    0.39842    1.000
    Si5573   Si       0.93692    0.20787    0.42855    1.000
    N5574    N        0.97056    0.19497    0.48995    1.000
    N5575    N        0.95005    0.02173    0.60299    1.000
    N5576    N        0.97740    0.08295    0.51743    1.000
    N5577    N        0.96920    0.11911    0.60013    1.000
    Si5578   Si       0.94314    0.05578    0.50547    1.000
    Si5579   Si       0.98007    0.12475    0.50710    1.000
    N5580    N        0.93437    0.02286    0.53230    1.000
    Si5581   Si       0.96098    0.00626    0.56413    1.000
    N5582    N        0.94128    0.14091    0.51195    1.000
    N5583    N        0.96732    0.21786    0.54728    1.000
    Si5584   Si       0.94532    0.18374    0.52368    1.000
    N5585    N        0.96902    0.24403    0.60444    1.000
    Si5586   Si       0.94869    0.25342    0.56661    1.000
    Si5587   Si       0.95904    0.10140    0.63864    1.000
    Si5588   Si       0.97649    0.05032    0.68159    1.000
    N5589    N        0.93638    0.03452    0.67327    1.000
    N5590    N        0.98211    0.06865    0.72086    1.000
    N5591    N        0.97229    0.12508    0.67213    1.000
    Si5592   Si       0.94581    0.07274    0.74359    1.000
    Si5593   Si       0.97564    0.24328    0.64665    1.000
    Si5594   Si       0.94257    0.13900    0.70082    1.000
    N5595    N        0.96275    0.20387    0.65907    1.000
    Si5596   Si       0.98582    0.19645    0.69367    1.000
    N5597    N        0.96427    0.17198    0.72033    1.000
    N5598    N        0.95416    0.04759    0.84856    1.000
    N5599    N        0.95204    0.08098    0.78499    1.000
    Si5600   Si       0.96992    0.11974    0.79766    1.000
    N5601    N        0.94639    0.11699    0.83430    1.000
    Si5602   Si       0.93400    0.07613    0.82428    1.000
    N5603    N        0.97957    0.00895    0.76059    1.000
    N5604    N        0.92608    0.25109    0.82254    1.000
    N5605    N        0.95498    0.15673    0.78412    1.000
    N5606    N        0.96486    0.22296    0.77734    1.000
    Si5607   Si       0.94571    0.15316    0.85665    1.000
    Si5608   Si       0.97905    0.18549    0.76138    1.000
    N5609    N        0.98421    0.17368    0.86688    1.000
    Si5610   Si       0.97789    0.04913    0.93504    1.000
    N5611    N        0.93413    0.04099    0.92438    1.000
    Si5612   Si       0.93380    0.02797    0.88037    1.000
    Si5613   Si       0.95113    0.02150    0.99372    1.000
    N5614    N        0.98806    0.02614    0.97042    1.000
    N5615    N        0.98732    0.14970    0.98396    1.000
    Si5616   Si       0.96554    0.19190    0.90314    1.000
    N5617    N        0.94820    0.22842    0.89045    1.000
    N5618    N        0.93459    0.15987    0.89952    1.000
    Si5619   Si       0.97336    0.32493    0.07059    1.000
    N5620    N        0.94448    0.33999    0.04152    1.000
    N5621    N        0.95459    0.33890    0.10818    1.000
    Si5622   Si       0.96349    0.34955    0.00441    1.000
    N5623    N        0.97953    0.28318    0.07108    1.000
    Si5624   Si       0.93907    0.37970    0.10752    1.000
    N5625    N        0.93884    0.26128    0.02360    1.000
    N5626    N        0.94512    0.44096    0.02617    1.000
    Si5627   Si       0.95857    0.44293    0.06816    1.000
    N5628    N        0.96475    0.40300    0.08039    1.000
    Si5629   Si       0.97477    0.42242    0.00038    1.000
    N5630    N        0.92877    0.45533    0.09783    1.000
    N5631    N        0.98851    0.47374    0.06702    1.000
    Si5632   Si       0.93550    0.33688    0.20653    1.000
    N5633    N        0.93949    0.26206    0.22975    1.000
    N5634    N        0.96665    0.33986    0.17928    1.000
    Si5635   Si       0.97460    0.28470    0.23860    1.000
    N5636    N        0.96254    0.32923    0.24118    1.000
    Si5637   Si       0.98328    0.33983    0.14009    1.000
    Si5638   Si       0.97561    0.47495    0.19813    1.000
    Si5639   Si       0.94993    0.44715    0.13827    1.000
    N5640    N        0.97097    0.43370    0.19008    1.000
    N5641    N        0.94935    0.48176    0.23197    1.000
    Si5642   Si       0.96807    0.39062    0.17781    1.000
    N5643    N        0.93503    0.40299    0.14437    1.000
    N5644    N        0.94696    0.32171    0.31603    1.000
    Si5645   Si       0.95453    0.34451    0.28147    1.000
    N5646    N        0.97338    0.27433    0.35527    1.000
    Si5647   Si       0.98612    0.31298    0.34039    1.000
    N5648    N        0.97779    0.42971    0.32991    1.000
    N5649    N        0.95753    0.41711    0.25776    1.000
    Si5650   Si       0.93563    0.44050    0.33387    1.000
    Si5651   Si       0.98394    0.40761    0.29321    1.000
    Si5652   Si       0.96112    0.32991    0.40567    1.000
    Si5653   Si       0.95239    0.27498    0.46269    1.000
    N5654    N        0.94800    0.35634    0.43596    1.000
    N5655    N        0.96752    0.29284    0.42541    1.000
    N5656    N        0.98365    0.26364    0.49118    1.000
    N5657    N        0.92663    0.30073    0.48483    1.000
    Si5658   Si       0.98514    0.26573    0.39660    1.000
    Si5659   Si       0.95860    0.50437    0.43306    1.000
    N5660    N        0.98041    0.46776    0.43693    1.000
    Si5661   Si       0.95055    0.31879    0.51859    1.000
    N5662    N        0.95534    0.29091    0.54969    1.000
    N5663    N        0.96702    0.36968    0.59968    1.000
    Si5664   Si       0.94903    0.38020    0.56099    1.000
    N5665    N        0.92757    0.35123    0.53616    1.000
    N5666    N        0.94618    0.47611    0.54596    1.000
    Si5667   Si       0.97493    0.41733    0.50123    1.000
    N5668    N        0.93382    0.42618    0.50399    1.000
    N5669    N        0.93889    0.49957    0.60817    1.000
    Si5670   Si       0.97713    0.47841    0.61795    1.000
    N5671    N        0.98471    0.39249    0.53694    1.000
    Si5672   Si       0.98811    0.48021    0.54028    1.000
    N5673    N        0.96655    0.33388    0.65924    1.000
    Si5674   Si       0.94913    0.30661    0.68640    1.000
    Si5675   Si       0.94028    0.35871    0.63291    1.000
    N5676    N        0.94555    0.26786    0.66429    1.000
    N5677    N        0.95768    0.29627    0.72989    1.000
    N5678    N        0.95666    0.38030    0.72429    1.000
    N5679    N        0.93225    0.39023    0.66026    1.000
    Si5680   Si       0.95432    0.42776    0.66563    1.000
    N5681    N        0.97414    0.43729    0.62732    1.000
    N5682    N        0.95119    0.31272    0.80378    1.000
    Si5683   Si       0.94387    0.28735    0.83871    1.000
    Si5684   Si       0.97234    0.34846    0.81636    1.000
    N5685    N        0.96065    0.36221    0.85659    1.000
    Si5686   Si       0.93368    0.30952    0.76287    1.000
    N5687    N        0.98468    0.27454    0.84469    1.000
    N5688    N        0.95517    0.38100    0.79430    1.000
    Si5689   Si       0.94847    0.41811    0.81484    1.000
    Si5690   Si       0.94297    0.46932    0.76621    1.000
    N5691    N        0.94713    0.49189    0.84480    1.000
    N5692    N        0.97884    0.44969    0.75843    1.000
    Si5693   Si       0.92855    0.38691    0.75824    1.000
    Si5694   Si       0.93929    0.46026    0.87207    1.000
    N5695    N        0.97367    0.31196    0.98229    1.000
    Si5696   Si       0.94857    0.26615    0.91246    1.000
    N5697    N        0.94016    0.36763    0.97312    1.000
    Si5698   Si       0.95961    0.27013    0.98439    1.000
    N5699    N        0.93161    0.29210    0.88169    1.000
    N5700    N        0.93228    0.26289    0.95106    1.000
    N5701    N        0.97286    0.42450    0.95719    1.000
    N5702    N        0.97494    0.44855    0.89113    1.000
    Si5703   Si       0.96311    0.38514    0.94092    1.000
    N5704    N        0.98420    0.49516    0.93938    1.000
    Si5705   Si       0.92770    0.38341    0.87287    1.000
    N5706    N        0.96737    0.54348    0.05679    1.000
    Si5707   Si       0.95678    0.55274    0.01387    1.000
    N5708    N        0.98357    0.58621    0.01306    1.000
    N5709    N        0.96095    0.50905    0.00265    1.000
    N5710    N        0.94057    0.63068    0.04857    1.000
    Si5711   Si       0.93713    0.73534    0.02663    1.000
    N5712    N        0.94625    0.69379    0.01378    1.000
    Si5713   Si       0.96881    0.72847    0.09570    1.000
    N5714    N        0.97389    0.68798    0.07770    1.000
    Si5715   Si       0.94187    0.67293    0.05207    1.000
    N5716    N        0.93557    0.74391    0.06939    1.000
    N5717    N        0.97839    0.74774    0.01339    1.000
    Si5718   Si       0.97237    0.66868    0.12052    1.000
    Si5719   Si       0.94463    0.59349    0.12946    1.000
    N5720    N        0.96223    0.55742    0.22700    1.000
    N5721    N        0.94739    0.56198    0.16007    1.000
    N5722    N        0.94566    0.61897    0.20871    1.000
    N5723    N        0.98248    0.51063    0.17329    1.000
    Si5724   Si       0.93181    0.52118    0.23945    1.000
    Si5725   Si       0.92993    0.57855    0.19860    1.000
    Si5726   Si       0.96145    0.72076    0.17241    1.000
    N5727    N        0.94748    0.63753    0.13705    1.000
    N5728    N        0.97018    0.68361    0.19049    1.000
    Si5729   Si       0.94385    0.65145    0.17752    1.000
    N5730    N        0.95734    0.70832    0.13107    1.000
    Si5731   Si       0.96648    0.56463    0.26919    1.000
    N5732    N        0.94523    0.59896    0.27842    1.000
    N5733    N        0.95947    0.57442    0.33927    1.000
    N5734    N        0.94257    0.53152    0.28199    1.000
    Si5735   Si       0.93695    0.60643    0.31909    1.000
    Si5736   Si       0.93782    0.63141    0.25007    1.000
    Si5737   Si       0.96476    0.74812    0.26920    1.000
    N5738    N        0.97024    0.71546    0.30183    1.000
    N5739    N        0.95722    0.64489    0.32487    1.000
    N5740    N        0.96742    0.66431    0.25984    1.000
    Si5741   Si       0.94199    0.72780    0.33226    1.000
    Si5742   Si       0.98062    0.67093    0.29964    1.000
    Si5743   Si       0.96407    0.66027    0.36423    1.000
    N5744    N        0.94113    0.69868    0.36539    1.000
    Si5745   Si       0.94407    0.54995    0.37232    1.000
    N5746    N        0.95697    0.52548    0.47219    1.000
    N5747    N        0.96116    0.60029    0.45060    1.000
    N5748    N        0.97351    0.52981    0.39933    1.000
    Si5749   Si       0.96287    0.61131    0.49290    1.000
    N5750    N        0.95805    0.62734    0.39322    1.000
    Si5751   Si       0.99081    0.74221    0.44195    1.000
    N5752    N        0.99332    0.64204    0.49541    1.000
    N5753    N        0.95017    0.75212    0.42339    1.000
    N5754    N        0.97635    0.74664    0.48403    1.000
    Si5755   Si       0.96217    0.57555    0.54818    1.000
    N5756    N        0.95937    0.61750    0.55850    1.000
    N5757    N        0.98222    0.57702    0.51065    1.000
    Si5758   Si       0.97826    0.58106    0.61550    1.000
    N5759    N        0.93229    0.54408    0.53862    1.000
    N5760    N        0.98361    0.55864    0.58068    1.000
    N5761    N        0.93887    0.60154    0.62000    1.000
    N5762    N        0.95870    0.66975    0.59902    1.000
    N5763    N        0.95799    0.72477    0.55479    1.000
    Si5764   Si       0.97506    0.75332    0.52571    1.000
    Si5765   Si       0.93314    0.69753    0.57462    1.000
    Si5766   Si       0.97265    0.53053    0.67284    1.000
    N5767    N        0.95752    0.62234    0.73895    1.000
    N5768    N        0.92742    0.52677    0.67314    1.000
    Si5769   Si       0.95557    0.64003    0.63086    1.000
    Si5770   Si       0.98114    0.73018    0.69350    1.000
    N5771    N        0.96899    0.69420    0.71768    1.000
    N5772    N        0.94875    0.74666    0.66816    1.000
    Si5773   Si       0.96955    0.65027    0.70778    1.000
    N5774    N        0.94411    0.64631    0.67216    1.000
    Si5775   Si       0.95921    0.52572    0.82008    1.000
    Si5776   Si       0.95842    0.59867    0.83507    1.000
    N5777    N        0.93873    0.56285    0.82306    1.000
    N5778    N        0.97134    0.62523    0.80390    1.000
    N5779    N        0.95848    0.50834    0.77930    1.000
    Si5780   Si       0.96420    0.53751    0.74942    1.000
    Si5781   Si       0.97373    0.66904    0.80505    1.000
    N5782    N        0.94691    0.74485    0.76188    1.000
    Si5783   Si       0.96408    0.70618    0.75828    1.000
    N5784    N        0.93680    0.68273    0.78725    1.000
    N5785    N        0.97938    0.67305    0.84679    1.000
    Si5786   Si       0.97194    0.59604    0.90361    1.000
    N5787    N        0.95125    0.55734    0.96598    1.000
    Si5788   Si       0.94961    0.51346    0.95952    1.000
    N5789    N        0.92854    0.58659    0.91149    1.000
    N5790    N        0.93961    0.74275    0.92578    1.000
    N5791    N        0.97494    0.67568    0.96052    1.000
    Si5792   Si       0.98592    0.70915    0.99303    1.000
    Si5793   Si       0.94374    0.65903    0.86980    1.000
    N5794    N        0.96550    0.64215    0.90181    1.000
    Si5795   Si       0.93448    0.66942    0.97832    1.000
    Si5796   Si       0.95931    0.83212    0.03153    1.000
    N5797    N        0.94199    0.80413    0.10056    1.000
    N5798    N        0.94472    0.87305    0.03928    1.000
    Si5799   Si       0.98269    0.79800    0.09096    1.000
    Si5800   Si       0.96149    0.88749    0.00090    1.000
    N5801    N        0.96941    0.98023    0.06557    1.000
    Si5802   Si       0.94863    0.95710    0.09667    1.000
    N5803    N        0.94277    0.97664    0.00030    1.000
    Si5804   Si       0.93394    0.97373    0.03961    1.000
    N5805    N        0.94350    0.81393    0.19660    1.000
    N5806    N        0.95304    0.85911    0.14308    1.000
    N5807    N        0.97899    0.86218    0.22788    1.000
    Si5808   Si       0.93945    0.88076    0.23769    1.000
    Si5809   Si       0.98484    0.82525    0.20637    1.000
    Si5810   Si       0.95587    0.99826    0.21677    1.000
    N5811    N        0.97973    0.00489    0.18125    1.000
    N5812    N        0.98166    0.97596    0.24305    1.000
    Si5813   Si       0.93160    0.89825    0.13334    1.000
    N5814    N        0.96420    0.92759    0.12338    1.000
    N5815    N        0.95508    0.83531    0.33801    1.000
    Si5816   Si       0.97631    0.79805    0.32934    1.000
    N5817    N        0.97407    0.78486    0.28797    1.000
    N5818    N        0.95346    0.76596    0.35052    1.000
    N5819    N        0.92774    0.76351    0.24917    1.000
    N5820    N        0.96511    0.95928    0.30942    1.000
    Si5821   Si       0.97330    0.94197    0.27040    1.000
    N5822    N        0.94114    0.92091    0.25256    1.000
    Si5823   Si       0.98745    0.96610    0.34519    1.000
    Si5824   Si       0.98153    0.85067    0.37096    1.000
    Si5825   Si       0.94572    0.82606    0.43178    1.000
    N5826    N        0.94479    0.80352    0.46832    1.000
    N5827    N        0.98377    0.82726    0.40953    1.000
    Si5828   Si       0.94711    0.87916    0.47731    1.000
    Si5829   Si       0.93868    0.75930    0.46363    1.000
    N5830    N        0.98816    0.87176    0.46379    1.000
    Si5831   Si       0.93011    0.76806    0.38781    1.000
    Si5832   Si       0.94407    0.98971    0.39938    1.000
    Si5833   Si       0.96699    0.95022    0.46471    1.000
    N5834    N        0.95662    0.95679    0.37378    1.000
    N5835    N        0.93890    0.97289    0.43976    1.000
    Si5836   Si       0.93865    0.91429    0.37595    1.000
    N5837    N        0.96927    0.88980    0.39000    1.000
    N5838    N        0.93940    0.92056    0.48303    1.000
    N5839    N        0.96756    0.79556    0.53628    1.000
    Si5840   Si       0.95869    0.81559    0.57578    1.000
    N5841    N        0.94192    0.79007    0.60618    1.000
    Si5842   Si       0.93763    0.81211    0.50888    1.000
    N5843    N        0.93909    0.85392    0.57874    1.000
    N5844    N        0.93671    0.85535    0.51125    1.000
    Si5845   Si       0.93669    0.87675    0.61652    1.000
    Si5846   Si       0.96008    0.93886    0.57833    1.000
    N5847    N        0.96556    0.90657    0.54978    1.000
    N5848    N        0.98537    0.94408    0.61469    1.000
    Si5849   Si       0.95991    0.84151    0.73235    1.000
    N5850    N        0.97816    0.87658    0.63174    1.000
    Si5851   Si       0.96565    0.77339    0.63880    1.000
    N5852    N        0.95833    0.88355    0.74808    1.000
    N5853    N        0.93155    0.91630    0.69258    1.000
    Si5854   Si       0.96594    0.91818    0.71997    1.000
    N5855    N        0.93200    0.98135    0.71609    1.000
    N5856    N        0.97170    0.82165    0.82828    1.000
    N5857    N        0.94819    0.81429    0.76443    1.000
    Si5858   Si       0.96959    0.77914    0.75372    1.000
    Si5859   Si       0.93542    0.82332    0.80546    1.000
    N5860    N        0.93282    0.85598    0.86848    1.000
    Si5861   Si       0.96681    0.82841    0.87000    1.000
    Si5862   Si       0.93696    0.88702    0.83538    1.000
    N5863    N        0.97822    0.89154    0.81925    1.000
    Si5864   Si       0.93812    0.99828    0.75696    1.000
    N5865    N        0.97911    0.93977    0.75483    1.000
    Si5866   Si       0.98396    0.90282    0.77778    1.000
    N5867    N        0.98571    0.79145    0.94713    1.000
    Si5868   Si       0.97532    0.76564    0.91256    1.000
    N5869    N        0.95127    0.79739    0.89458    1.000
    Si5870   Si       0.95815    0.82333    0.95533    1.000
    N5871    N        0.96278    0.85934    0.92920    1.000
    N5872    N        0.97069    0.84448    0.99210    1.000
    Si5873   Si       0.93359    0.94904    0.96911    1.000
    Si5874   Si       0.93655    0.88228    0.90500    1.000
    N5875    N        0.93836    0.98389    0.88111    1.000
    N5876    N        0.96806    0.95330    0.94136    1.000
    Si5877   Si       0.96826    0.95738    0.89921    1.000
    N5878    N        0.94586    0.92035    0.88766    1.000
    N5879    N        0.92870    0.90648    0.98116    1.000
