# CIF file generated by openbabel 3.1.1, see https://openbabel.org
data_I
_chemical_name_common '3.01-91.aims'
_cell_length_a 39.8834
_cell_length_b 39.8834
_cell_length_c 39.8834
_cell_angle_alpha 90
_cell_angle_beta 90
_cell_angle_gamma 90
loop_
    _atom_site_label
    _atom_site_type_symbol
    _atom_site_fract_x
    _atom_site_fract_y
    _atom_site_fract_z
    _atom_site_occupancy
    N0       N        0.02816    0.05814    0.02305    1.000
    Si1      Si       0.03823    0.01929    0.03422    1.000
    Si2      Si       0.99854    0.01799    0.09215    1.000
    N3       N        0.07060    0.01282    0.06394    1.000
    N4       N        0.98757    0.06060    0.08220    1.000
    N5       N        0.14466    0.01839    0.09067    1.000
    Si6      Si       0.16664    0.03881    0.05880    1.000
    N7       N        0.20671    0.05225    0.06974    1.000
    N8       N        0.16246    0.00921    0.02585    1.000
    Si9      Si       0.23747    0.04883    0.10067    1.000
    N10      N        0.08944    0.02559    0.13378    1.000
    Si11     Si       0.08819    0.06151    0.23798    1.000
    N12      N        0.02456    0.05302    0.15137    1.000
    Si13     Si       0.06551    0.04717    0.16520    1.000
    N14      N        0.10048    0.02199    0.22591    1.000
    N15      N        0.16309    0.04261    0.23844    1.000
    N16      N        0.16591    0.02650    0.15588    1.000
    Si17     Si       0.13064    0.03680    0.12864    1.000
    N18      N        0.02213    0.04602    0.32105    1.000
    Si19     Si       0.02789    0.03679    0.27624    1.000
    N20      N        0.07326    0.05810    0.28009    1.000
    Si21     Si       0.03509    0.01257    0.34507    1.000
    Si22     Si       0.16003    0.03261    0.33158    1.000
    Si23     Si       0.19544    0.03576    0.26808    1.000
    N24      N        0.18054    0.00976    0.30076    1.000
    N25      N        0.23093    0.02079    0.25128    1.000
    N26      N        0.17875    0.04699    0.36842    1.000
    N27      N        0.14495    0.06571    0.30823    1.000
    Si28     Si       0.06308    0.02052    0.48832    1.000
    Si29     Si       0.00254    0.05335    0.47697    1.000
    Si30     Si       0.08714    0.04975    0.38522    1.000
    N31      N        0.05036    0.02658    0.38169    1.000
    Si32     Si       0.02835    0.02331    0.41972    1.000
    N33      N        0.10749    0.02547    0.48416    1.000
    N34      N        0.01058    0.06142    0.43357    1.000
    N35      N        0.04481    0.06136    0.49082    1.000
    Si36     Si       0.10397    0.01150    0.44181    1.000
    N37      N        0.05925    0.00860    0.44454    1.000
    N38      N        0.17060    0.01577    0.44302    1.000
    Si39     Si       0.18441    0.02458    0.48354    1.000
    Si40     Si       0.16535    0.04687    0.41085    1.000
    N41      N        0.22632    0.02735    0.47425    1.000
    N42      N        0.11913    0.02565    0.40267    1.000
    N43      N        0.01448    0.03036    0.54622    1.000
    Si44     Si       0.03862    0.03104    0.58376    1.000
    N45      N        0.00541    0.03964    0.61291    1.000
    Si46     Si       0.11074    0.01377    0.59402    1.000
    N47      N        0.11712    0.05580    0.60295    1.000
    Si48     Si       0.22390    0.05169    0.57241    1.000
    Si49     Si       0.12489    0.04270    0.52062    1.000
    N50      N        0.13028    0.01485    0.55481    1.000
    N51      N        0.21031    0.01502    0.54972    1.000
    N52      N        0.16301    0.05570    0.50597    1.000
    N53      N        0.18893    0.06299    0.59427    1.000
    Si54     Si       0.03418    0.02023    0.68239    1.000
    Si55     Si       0.09859    0.02932    0.70192    1.000
    N56      N        0.00822    0.03302    0.71528    1.000
    N57      N        0.07040    0.02359    0.73740    1.000
    N58      N        0.04270    0.06137    0.66546    1.000
    N59      N        0.10424    0.07079    0.69156    1.000
    N60      N        0.20877    0.02141    0.70193    1.000
    Si61     Si       0.21124    0.05891    0.72086    1.000
    Si62     Si       0.17458    0.02437    0.67425    1.000
    N63      N        0.16353    0.06395    0.65707    1.000
    N64      N        0.14019    0.01375    0.70067    1.000
    N65      N        0.01872    0.04819    0.78395    1.000
    Si66     Si       0.03068    0.02115    0.75037    1.000
    N67      N        0.99743    0.04619    0.86743    1.000
    N68      N        0.11720    0.03360    0.84699    1.000
    Si69     Si       0.11993    0.05594    0.81111    1.000
    N70      N        0.12989    0.03456    0.77681    1.000
    N71      N        0.23231    0.05021    0.75882    1.000
    N72      N        0.22911    0.00955    0.84037    1.000
    Si73     Si       0.23745    0.05170    0.83949    1.000
    Si74     Si       0.09851    0.05598    0.87999    1.000
    N75      N        0.02334    0.02147    0.93472    1.000
    N76      N        0.06238    0.03303    0.88532    1.000
    Si77     Si       0.02622    0.05045    0.89946    1.000
    Si78     Si       0.05626    0.01845    0.96129    1.000
    N79      N        0.06976    0.05955    0.96674    1.000
    Si80     Si       0.16703    0.02808    0.98769    1.000
    N81      N        0.20921    0.02867    0.98205    1.000
    N82      N        0.11958    0.05097    0.91657    1.000
    N83      N        0.13841    0.06213    0.98497    1.000
    Si84     Si       0.15586    0.02581    0.91709    1.000
    Si85     Si       0.22012    0.03587    0.94153    1.000
    N86      N        0.18715    0.05525    0.92253    1.000
    N87      N        0.08437    0.09702    0.02125    1.000
    N88      N        0.08902    0.10392    0.08677    1.000
    Si89     Si       0.00137    0.08080    0.04629    1.000
    N90      N        0.02591    0.11624    0.05555    1.000
    Si91     Si       0.06929    0.12094    0.05262    1.000
    Si92     Si       0.05028    0.08456    0.99715    1.000
    Si93     Si       0.12790    0.09093    0.01410    1.000
    Si94     Si       0.13212    0.09884    0.08603    1.000
    Si95     Si       0.21700    0.09371    0.04570    1.000
    N96      N        0.14703    0.07760    0.04983    1.000
    Si97     Si       0.23241    0.12031    0.11358    1.000
    Si98     Si       0.07014    0.11349    0.12403    1.000
    N99      N        0.08617    0.08673    0.15353    1.000
    Si100    Si       0.02774    0.09574    0.22750    1.000
    Si101    Si       0.08992    0.10572    0.19206    1.000
    Si102    Si       0.00284    0.09145    0.15789    1.000
    N103     N        0.00029    0.10885    0.19719    1.000
    N104     N        0.02875    0.11727    0.13490    1.000
    N105     N        0.06073    0.07340    0.20693    1.000
    N106     N        0.14923    0.07683    0.12003    1.000
    Si107    Si       0.17947    0.06914    0.14861    1.000
    N108     N        0.23656    0.10365    0.19797    1.000
    N109     N        0.17145    0.09296    0.18498    1.000
    N110     N        0.22150    0.07570    0.13357    1.000
    N111     N        0.11595    0.09264    0.22246    1.000
    Si112    Si       0.15671    0.08486    0.22676    1.000
    Si113    Si       0.10147    0.07852    0.30761    1.000
    N114     N        0.03647    0.11825    0.31732    1.000
    Si115    Si       0.04143    0.08059    0.33841    1.000
    N116     N        0.10190    0.11941    0.29407    1.000
    N117     N        0.00931    0.06866    0.25369    1.000
    N118     N        0.08472    0.07092    0.34791    1.000
    Si119    Si       0.17388    0.09635    0.29724    1.000
    N120     N        0.17596    0.11383    0.25612    1.000
    N121     N        0.20840    0.06935    0.29570    1.000
    N122     N        0.02761    0.09912    0.37558    1.000
    N123     N        0.07703    0.07874    0.41745    1.000
    Si124    Si       0.03644    0.09172    0.41615    1.000
    N125     N        0.10342    0.10378    0.47617    1.000
    Si126    Si       0.11083    0.10037    0.43312    1.000
    Si127    Si       0.19063    0.10778    0.41987    1.000
    N128     N        0.15084    0.08795    0.42078    1.000
    N129     N        0.21445    0.06760    0.41806    1.000
    N130     N        0.20170    0.11493    0.37698    1.000
    Si131    Si       0.21581    0.07323    0.37224    1.000
    Si132    Si       0.09257    0.08412    0.57729    1.000
    N133     N        0.99880    0.10749    0.55756    1.000
    Si134    Si       0.07222    0.09072    0.50517    1.000
    N135     N        0.09800    0.07328    0.53552    1.000
    N136     N        0.05382    0.07162    0.59045    1.000
    N137     N        0.05225    0.12658    0.52259    1.000
    Si138    Si       0.15313    0.07502    0.61822    1.000
    N139     N        0.14253    0.11783    0.61594    1.000
    Si140    Si       0.02857    0.07524    0.62625    1.000
    N141     N        0.00816    0.11468    0.63194    1.000
    Si142    Si       0.07162    0.09475    0.67776    1.000
    N143     N        0.07344    0.11885    0.64151    1.000
    N144     N        0.99491    0.10112    0.71786    1.000
    N145     N        0.06535    0.11972    0.71245    1.000
    Si146    Si       0.02914    0.12228    0.73591    1.000
    Si147    Si       0.14526    0.08464    0.68967    1.000
    Si148    Si       0.23516    0.11750    0.66616    1.000
    N149     N        0.17505    0.08202    0.72216    1.000
    N150     N        0.23857    0.08105    0.69334    1.000
    N151     N        0.03125    0.09867    0.84003    1.000
    Si152    Si       0.04166    0.08245    0.80119    1.000
    N153     N        0.08394    0.07840    0.79893    1.000
    N154     N        0.02413    0.11807    0.77837    1.000
    Si155    Si       0.11156    0.11532    0.79804    1.000
    Si156    Si       0.99001    0.08823    0.85340    1.000
    N157     N        0.19601    0.10569    0.78326    1.000
    N158     N        0.14141    0.09409    0.82081    1.000
    Si159    Si       0.18287    0.10362    0.82519    1.000
    N160     N        0.20212    0.07412    0.85018    1.000
    Si161    Si       0.17031    0.11422    0.74904    1.000
    Si162    Si       0.23698    0.08985    0.77856    1.000
    N163     N        0.12830    0.12260    0.75820    1.000
    Si164    Si       0.05033    0.11295    0.87561    1.000
    N165     N        0.09027    0.09663    0.88047    1.000
    N166     N        0.02132    0.11370    0.98461    1.000
    N167     N        0.02883    0.09400    0.90892    1.000
    Si168    Si       0.99634    0.11763    0.92095    1.000
    Si169    Si       0.10931    0.07025    0.95449    1.000
    N170     N        0.15954    0.11259    0.89267    1.000
    Si171    Si       0.19205    0.08303    0.89283    1.000
    N172     N        0.11475    0.11211    0.94726    1.000
    N173     N        0.22170    0.11517    0.90450    1.000
    Si174    Si       0.11810    0.12012    0.90346    1.000
    Si175    Si       0.01888    0.16056    0.04722    1.000
    N176     N        0.07090    0.16464    0.04975    1.000
    N177     N        0.02646    0.17658    0.00689    1.000
    N178     N        0.02463    0.17425    0.09210    1.000
    Si179    Si       0.16676    0.14552    0.03833    1.000
    N180     N        0.15086    0.13913    0.07848    1.000
    Si181    Si       0.14982    0.17075    0.11040    1.000
    Si182    Si       0.23475    0.15701    0.00289    1.000
    N183     N        0.13864    0.13196    0.00707    1.000
    N184     N        0.20763    0.13196    0.02640    1.000
    N185     N        0.08032    0.15732    0.12219    1.000
    N186     N        0.99492    0.17080    0.22760    1.000
    Si187    Si       0.09861    0.17329    0.15783    1.000
    Si188    Si       0.01639    0.15931    0.13344    1.000
    N189     N        0.08107    0.14823    0.18817    1.000
    Si190    Si       0.04449    0.16082    0.21054    1.000
    N191     N        0.02219    0.17711    0.17075    1.000
    N192     N        0.04888    0.13101    0.24377    1.000
    N193     N        0.14215    0.17575    0.15264    1.000
    Si194    Si       0.21846    0.17944    0.12808    1.000
    N195     N        0.18257    0.16161    0.20723    1.000
    N196     N        0.20515    0.13883    0.14142    1.000
    Si197    Si       0.19940    0.12742    0.18494    1.000
    Si198    Si       0.02892    0.13749    0.35564    1.000
    N199     N        0.06587    0.17600    0.29481    1.000
    Si200    Si       0.06269    0.13341    0.28541    1.000
    N201     N        0.05819    0.16682    0.36919    1.000
    N202     N        0.99142    0.15695    0.35774    1.000
    N203     N        0.11656    0.18276    0.33290    1.000
    N204     N        0.14357    0.17372    0.26772    1.000
    Si205    Si       0.12969    0.15297    0.30458    1.000
    Si206    Si       0.19300    0.15389    0.35562    1.000
    N207     N        0.23398    0.15881    0.33397    1.000
    N208     N        0.16689    0.13540    0.32099    1.000
    Si209    Si       0.18124    0.15947    0.25148    1.000
    Si210    Si       0.06407    0.15930    0.41223    1.000
    N211     N        0.10404    0.14165    0.42069    1.000
    Si212    Si       0.99697    0.14962    0.44542    1.000
    N213     N        0.03372    0.13394    0.43199    1.000
    N214     N        0.15997    0.14553    0.46271    1.000
    N215     N        0.16210    0.16678    0.39177    1.000
    N216     N        0.22178    0.13312    0.44080    1.000
    Si217    Si       0.14032    0.16467    0.42748    1.000
    Si218    Si       0.20346    0.15374    0.47299    1.000
    Si219    Si       0.13085    0.13592    0.49354    1.000
    Si220    Si       0.08058    0.15599    0.53976    1.000
    N221     N        0.03160    0.16337    0.60115    1.000
    Si222    Si       0.00862    0.13578    0.52437    1.000
    Si223    Si       0.99920    0.13870    0.58660    1.000
    Si224    Si       0.10405    0.14110    0.61665    1.000
    N225     N        0.09239    0.13035    0.57428    1.000
    N226     N        0.99855    0.16951    0.54937    1.000
    N227     N        0.09904    0.16766    0.50073    1.000
    N228     N        0.20492    0.13821    0.58271    1.000
    Si229    Si       0.19074    0.14947    0.54222    1.000
    N230     N        0.21869    0.13780    0.51141    1.000
    Si231    Si       0.17766    0.14173    0.61608    1.000
    N232     N        0.15168    0.13456    0.53101    1.000
    Si233    Si       0.10661    0.13682    0.72445    1.000
    Si234    Si       0.03908    0.14395    0.63858    1.000
    N235     N        0.01174    0.16309    0.72499    1.000
    N236     N        0.04637    0.17708    0.66722    1.000
    N237     N        0.08915    0.17521    0.72809    1.000
    N238     N        0.10645    0.18337    0.63288    1.000
    Si239    Si       0.05115    0.17927    0.70882    1.000
    N240     N        0.13646    0.12648    0.69416    1.000
    N241     N        0.19597    0.13613    0.65567    1.000
    Si242    Si       0.17199    0.15038    0.68988    1.000
    Si243    Si       0.23664    0.14648    0.72937    1.000
    N244     N        0.19347    0.14631    0.72686    1.000
    Si245    Si       0.99890    0.15744    0.86196    1.000
    N246     N        0.09683    0.14985    0.82140    1.000
    N247     N        0.19330    0.14305    0.84194    1.000
    Si248    Si       0.22029    0.17088    0.82308    1.000
    N249     N        0.04135    0.15449    0.87285    1.000
    N250     N        0.07807    0.16368    0.97506    1.000
    N251     N        0.01140    0.15504    0.93625    1.000
    Si252    Si       0.03603    0.15264    0.97198    1.000
    N253     N        0.11123    0.16160    0.90258    1.000
    Si254    Si       0.07317    0.17985    0.89204    1.000
    Si255    Si       0.11884    0.14764    0.97192    1.000
    Si256    Si       0.19159    0.14185    0.88522    1.000
    N257     N        0.14665    0.18167    0.95939    1.000
    N258     N        0.18517    0.18128    0.90336    1.000
    N259     N        0.05876    0.23006    0.09388    1.000
    N260     N        0.01105    0.23237    0.03994    1.000
    N261     N        0.10590    0.21705    0.02402    1.000
    Si262    Si       0.09837    0.23351    0.11708    1.000
    Si263    Si       0.07150    0.19148    0.01148    1.000
    Si264    Si       0.01298    0.21690    0.99955    1.000
    Si265    Si       0.06760    0.18460    0.08993    1.000
    N266     N        0.11793    0.19928    0.09200    1.000
    N267     N        0.18772    0.19296    0.10246    1.000
    Si268    Si       0.13535    0.21014    0.05217    1.000
    Si269    Si       0.19580    0.23175    0.08434    1.000
    N270     N        0.23607    0.22961    0.06642    1.000
    N271     N        0.16593    0.18775    0.02998    1.000
    N272     N        0.06301    0.19947    0.22526    1.000
    Si273    Si       0.08787    0.22641    0.19955    1.000
    Si274    Si       0.99752    0.20403    0.19750    1.000
    N275     N        0.08875    0.21605    0.15719    1.000
    N276     N        0.23864    0.20755    0.15209    1.000
    N277     N        0.12631    0.21029    0.21396    1.000
    Si278    Si       0.21362    0.24088    0.16086    1.000
    Si279    Si       0.15840    0.19539    0.18807    1.000
    N280     N        0.18374    0.23077    0.19002    1.000
    N281     N        0.09807    0.23102    0.27524    1.000
    Si282    Si       0.06224    0.20861    0.26813    1.000
    N283     N        0.02018    0.22157    0.27753    1.000
    N284     N        0.06469    0.23262    0.33694    1.000
    Si285    Si       0.07463    0.19036    0.33586    1.000
    Si286    Si       0.20937    0.23208    0.27733    1.000
    N287     N        0.18420    0.19993    0.34551    1.000
    N288     N        0.23087    0.23676    0.31532    1.000
    Si289    Si       0.13402    0.21501    0.25679    1.000
    Si290    Si       0.20588    0.23580    0.35308    1.000
    N291     N        0.16952    0.23853    0.26153    1.000
    Si292    Si       0.14552    0.19536    0.36157    1.000
    N293     N        0.21555    0.18928    0.26109    1.000
    N294     N        0.06413    0.19553    0.43927    1.000
    Si295    Si       0.09503    0.19954    0.47127    1.000
    Si296    Si       0.02873    0.22135    0.43111    1.000
    N297     N        0.99832    0.19259    0.44049    1.000
    N298     N        0.09024    0.23560    0.49747    1.000
    Si299    Si       0.14216    0.23884    0.42561    1.000
    Si300    Si       0.22256    0.21985    0.43277    1.000
    N301     N        0.18421    0.23861    0.43564    1.000
    N302     N        0.21207    0.19755    0.47709    1.000
    N303     N        0.13125    0.20283    0.44726    1.000
    N304     N        0.23109    0.22982    0.38845    1.000
    N305     N        0.13662    0.23327    0.38229    1.000
    Si306    Si       0.09345    0.22956    0.53911    1.000
    N307     N        0.00927    0.23010    0.56957    1.000
    Si308    Si       0.04023    0.20111    0.58233    1.000
    N309     N        0.07126    0.19607    0.55366    1.000
    N310     N        0.04912    0.22448    0.61871    1.000
    N311     N        0.13337    0.23022    0.56021    1.000
    Si312    Si       0.20725    0.21852    0.51395    1.000
    Si313    Si       0.16998    0.21220    0.57866    1.000
    N314     N        0.19094    0.19321    0.54557    1.000
    N315     N        0.16938    0.18597    0.61184    1.000
    N316     N        0.04155    0.21932    0.72453    1.000
    Si317    Si       0.07385    0.20784    0.64908    1.000
    N318     N        0.09240    0.23457    0.67743    1.000
    Si319    Si       0.00120    0.20685    0.73442    1.000
    N320     N        0.15719    0.19304    0.68374    1.000
    N321     N        0.20514    0.22757    0.72183    1.000
    Si322    Si       0.14507    0.20153    0.64418    1.000
    Si323    Si       0.16368    0.21832    0.71773    1.000
    N324     N        0.08134    0.20747    0.85899    1.000
    Si325    Si       0.03075    0.22667    0.79485    1.000
    N326     N        0.06887    0.20485    0.78740    1.000
    N327     N        0.02067    0.22814    0.83681    1.000
    Si328    Si       0.09399    0.19194    0.81997    1.000
    N329     N        0.99314    0.20778    0.77529    1.000
    Si330    Si       0.09371    0.21101    0.75148    1.000
    Si331    Si       0.04711    0.23725    0.87074    1.000
    Si332    Si       0.11432    0.23727    0.85975    1.000
    Si333    Si       0.15930    0.21205    0.79124    1.000
    N334     N        0.12901    0.21604    0.82179    1.000
    Si335    Si       0.22176    0.21080    0.75830    1.000
    N336     N        0.19880    0.19302    0.79218    1.000
    N337     N        0.14167    0.20458    0.75302    1.000
    N338     N        0.00377    0.22421    0.95469    1.000
    N339     N        0.04813    0.20967    0.91253    1.000
    Si340    Si       0.00759    0.19501    0.92182    1.000
    N341     N        0.05781    0.23124    0.99038    1.000
    Si342    Si       0.04755    0.23622    0.94845    1.000
    N343     N        0.13726    0.22591    0.89753    1.000
    Si344    Si       0.17579    0.20113    0.98931    1.000
    Si345    Si       0.14397    0.18809    0.91495    1.000
    Si346    Si       0.21741    0.20769    0.89109    1.000
    N347     N        0.21819    0.19081    0.98195    1.000
    N348     N        0.18094    0.24260    0.98501    1.000
    N349     N        0.02147    0.28929    0.07360    1.000
    N350     N        0.10488    0.28372    0.03480    1.000
    Si351    Si       0.09633    0.25329    0.00471    1.000
    Si352    Si       0.02159    0.24618    0.07921    1.000
    N353     N        0.11017    0.27324    0.10669    1.000
    Si354    Si       0.13183    0.27909    0.06738    1.000
    N355     N        0.22678    0.29201    0.03612    1.000
    Si356    Si       0.20919    0.27144    0.00248    1.000
    Si357    Si       0.17732    0.29700    0.11838    1.000
    N358     N        0.19288    0.25433    0.12252    1.000
    N359     N        0.16057    0.24646    0.06248    1.000
    N360     N        0.08488    0.27000    0.21028    1.000
    N361     N        0.01219    0.24306    0.20650    1.000
    N362     N        0.22706    0.25678    0.24407    1.000
    Si363    Si       0.18732    0.25937    0.22506    1.000
    Si364    Si       0.01704    0.26220    0.29391    1.000
    N365     N        0.05565    0.27959    0.28826    1.000
    N366     N        0.00563    0.26500    0.33569    1.000
    Si367    Si       0.08690    0.25761    0.30889    1.000
    Si368    Si       0.04130    0.25765    0.36298    1.000
    N369     N        0.05858    0.29604    0.36978    1.000
    N370     N        0.11596    0.28324    0.32708    1.000
    Si371    Si       0.14146    0.27117    0.36113    1.000
    N372     N        0.18344    0.27397    0.34835    1.000
    Si373    Si       0.07446    0.27353    0.47289    1.000
    Si374    Si       0.00305    0.26302    0.48610    1.000
    N375     N        0.03735    0.25210    0.46102    1.000
    N376     N        0.07382    0.30135    0.43583    1.000
    N377     N        0.01588    0.23993    0.39468    1.000
    N378     N        0.20035    0.30225    0.45845    1.000
    N379     N        0.13461    0.27296    0.45449    1.000
    Si380    Si       0.17708    0.26782    0.46759    1.000
    Si381    Si       0.24185    0.29311    0.46521    1.000
    N382     N        0.07140    0.26463    0.55282    1.000
    N383     N        0.01217    0.28181    0.52341    1.000
    Si384    Si       0.02872    0.26851    0.56009    1.000
    N385     N        0.02533    0.28627    0.59935    1.000
    Si386    Si       0.01572    0.25203    0.62502    1.000
    Si387    Si       0.09090    0.30216    0.54208    1.000
    N388     N        0.17987    0.25155    0.50870    1.000
    Si389    Si       0.15993    0.26455    0.54661    1.000
    N390     N        0.18958    0.25469    0.58062    1.000
    Si391    Si       0.23265    0.25035    0.57310    1.000
    N392     N        0.13423    0.29803    0.54489    1.000
    Si393    Si       0.17931    0.26785    0.62256    1.000
    N394     N        0.05874    0.29342    0.71704    1.000
    Si395    Si       0.05630    0.25213    0.69961    1.000
    N396     N        0.02550    0.25470    0.66964    1.000
    N397     N        0.11258    0.30375    0.66901    1.000
    Si398    Si       0.12577    0.26280    0.67253    1.000
    N399     N        0.14752    0.24416    0.63989    1.000
    Si400    Si       0.22799    0.25360    0.69264    1.000
    N401     N        0.20639    0.26768    0.65748    1.000
    N402     N        0.14605    0.26013    0.71289    1.000
    N403     N        0.03049    0.26643    0.77795    1.000
    Si404    Si       0.06537    0.28361    0.75924    1.000
    Si405    Si       0.99980    0.29577    0.77445    1.000
    N406     N        0.09710    0.25413    0.75604    1.000
    Si407    Si       0.21148    0.27211    0.78381    1.000
    N408     N        0.14532    0.27454    0.85323    1.000
    N409     N        0.17424    0.25288    0.78167    1.000
    Si410    Si       0.14049    0.26990    0.75676    1.000
    Si411    Si       0.23396    0.27421    0.86067    1.000
    N412     N        0.22223    0.29285    0.82179    1.000
    N413     N        0.13264    0.30536    0.78312    1.000
    N414     N        0.08063    0.26678    0.86912    1.000
    N415     N        0.05668    0.27663    0.93614    1.000
    N416     N        0.01089    0.26035    0.88813    1.000
    Si417    Si       0.02515    0.29273    0.91160    1.000
    Si418    Si       0.08982    0.30250    0.95078    1.000
    N419     N        0.11531    0.27202    0.96961    1.000
    Si420    Si       0.16642    0.25803    0.88657    1.000
    N421     N        0.18218    0.30212    0.98706    1.000
    N422     N        0.20523    0.24469    0.87276    1.000
    N423     N        0.17283    0.28471    0.92239    1.000
    Si424    Si       0.15958    0.27459    0.96311    1.000
    Si425    Si       0.00285    0.31849    0.09734    1.000
    N426     N        0.03384    0.34650    0.11125    1.000
    Si427    Si       0.09130    0.32407    0.02636    1.000
    N428     N        0.10337    0.34588    0.09947    1.000
    N429     N        0.05649    0.34206    0.04883    1.000
    Si430    Si       0.01469    0.32027    0.03979    1.000
    N431     N        0.01135    0.34513    0.99957    1.000
    Si432    Si       0.13990    0.34791    0.07433    1.000
    N433     N        0.15988    0.31104    0.08133    1.000
    N434     N        0.12353    0.35127    0.03199    1.000
    N435     N        0.20581    0.35800    0.01536    1.000
    N436     N        0.07373    0.31801    0.15700    1.000
    N437     N        0.00161    0.34208    0.17423    1.000
    Si438    Si       0.03941    0.34526    0.15353    1.000
    N439     N        0.05774    0.33520    0.22410    1.000
    Si440    Si       0.08250    0.30975    0.19783    1.000
    Si441    Si       0.10702    0.31240    0.13030    1.000
    N442     N        0.18784    0.35414    0.17639    1.000
    Si443    Si       0.21297    0.35725    0.13994    1.000
    N444     N        0.12069    0.33300    0.20234    1.000
    N445     N        0.21602    0.31641    0.12593    1.000
    Si446    Si       0.11764    0.35492    0.23923    1.000
    Si447    Si       0.16043    0.32286    0.18764    1.000
    N448     N        0.14650    0.31163    0.14738    1.000
    N449     N        0.17762    0.30150    0.22062    1.000
    N450     N        0.03083    0.33960    0.28496    1.000
    Si451    Si       0.06207    0.31811    0.26551    1.000
    N452     N        0.10453    0.32877    0.27080    1.000
    Si453    Si       0.09579    0.31913    0.36216    1.000
    N454     N        0.11446    0.34728    0.33302    1.000
    N455     N        0.17147    0.31679    0.29467    1.000
    Si456    Si       0.12812    0.31873    0.30327    1.000
    N457     N        0.20205    0.33999    0.35570    1.000
    Si458    Si       0.18378    0.32880    0.25520    1.000
    N459     N        0.22425    0.34623    0.25588    1.000
    Si460    Si       0.19922    0.30813    0.32677    1.000
    N461     N        0.07516    0.35376    0.38861    1.000
    N462     N        0.01328    0.33902    0.41298    1.000
    Si463    Si       0.05156    0.32321    0.40660    1.000
    N464     N        0.01617    0.33973    0.48804    1.000
    Si465    Si       0.10375    0.34813    0.48649    1.000
    Si466    Si       0.99534    0.32755    0.45141    1.000
    N467     N        0.12568    0.30227    0.38838    1.000
    Si468    Si       0.17465    0.34169    0.46061    1.000
    Si469    Si       0.11944    0.30591    0.43192    1.000
    N470     N        0.13241    0.34050    0.45434    1.000
    N471     N        0.07083    0.33148    0.56804    1.000
    Si472    Si       0.03304    0.32720    0.59022    1.000
    N473     N        0.00372    0.33979    0.56026    1.000
    N474     N        0.08748    0.30847    0.49785    1.000
    N475     N        0.02880    0.35823    0.62268    1.000
    Si476    Si       0.99221    0.32072    0.52120    1.000
    Si477    Si       0.09585    0.36209    0.58478    1.000
    Si478    Si       0.21548    0.33109    0.52216    1.000
    Si479    Si       0.15346    0.33895    0.54424    1.000
    N480     N        0.19659    0.33338    0.56103    1.000
    Si481    Si       0.21540    0.35200    0.59502    1.000
    N482     N        0.17656    0.34031    0.50494    1.000
    N483     N        0.13856    0.35604    0.58414    1.000
    N484     N        0.09334    0.35113    0.62864    1.000
    Si485    Si       0.02662    0.32255    0.70633    1.000
    Si486    Si       0.09052    0.32411    0.70037    1.000
    N487     N        0.05640    0.34977    0.68923    1.000
    N488     N        0.00251    0.32728    0.74260    1.000
    N489     N        0.99756    0.31402    0.67699    1.000
    Si490    Si       0.22297    0.32274    0.72601    1.000
    Si491    Si       0.13179    0.33234    0.64060    1.000
    Si492    Si       0.20291    0.31263    0.65593    1.000
    N493     N        0.16718    0.31038    0.63053    1.000
    N494     N        0.23202    0.32668    0.62929    1.000
    N495     N        0.19347    0.32875    0.69471    1.000
    N496     N        0.12255    0.34136    0.72561    1.000
    Si497    Si       0.15865    0.35561    0.70393    1.000
    N498     N        0.07038    0.32523    0.77402    1.000
    N499     N        0.00809    0.32118    0.80704    1.000
    N500     N        0.10529    0.32757    0.84442    1.000
    Si501    Si       0.04042    0.34918    0.79479    1.000
    Si502    Si       0.11201    0.33998    0.76632    1.000
    Si503    Si       0.02449    0.36109    0.86575    1.000
    Si504    Si       0.20784    0.32993    0.80512    1.000
    N505     N        0.17211    0.33924    0.82855    1.000
    N506     N        0.20660    0.31263    0.76395    1.000
    Si507    Si       0.14045    0.30951    0.82670    1.000
    N508     N        0.99418    0.30576    0.94243    1.000
    Si509    Si       0.08382    0.30859    0.87786    1.000
    N510     N        0.07532    0.32593    0.98529    1.000
    N511     N        0.04188    0.32279    0.88445    1.000
    N512     N        0.10353    0.32325    0.91581    1.000
    Si513    Si       0.05041    0.36327    0.98980    1.000
    Si514    Si       0.18558    0.34446    0.97937    1.000
    Si515    Si       0.19753    0.32116    0.91248    1.000
    N516     N        0.21217    0.34547    0.94550    1.000
    Si517    Si       0.13170    0.35591    0.92145    1.000
    N518     N        0.23524    0.30521    0.89143    1.000
    N519     N        0.16625    0.34928    0.89643    1.000
    N520     N        0.14877    0.36128    0.96097    1.000
    N521     N        0.06185    0.40718    0.10631    1.000
    N522     N        0.09717    0.40991    0.05082    1.000
    Si523    Si       0.06613    0.36279    0.08691    1.000
    N524     N        0.99134    0.41581    0.08033    1.000
    Si525    Si       0.11871    0.39199    0.01725    1.000
    N526     N        0.16820    0.38157    0.07178    1.000
    Si527    Si       0.18449    0.39020    0.03299    1.000
    Si528    Si       0.16789    0.41332    0.10037    1.000
    N529     N        0.15827    0.40986    0.00248    1.000
    N530     N        0.12723    0.41964    0.11458    1.000
    Si531    Si       0.99220    0.36895    0.20802    1.000
    N532     N        0.05662    0.38276    0.17037    1.000
    Si533    Si       0.05863    0.37728    0.21172    1.000
    N534     N        0.09520    0.39182    0.23074    1.000
    N535     N        0.02099    0.39528    0.22683    1.000
    Si536    Si       0.05639    0.42118    0.14724    1.000
    Si537    Si       0.22630    0.38956    0.24811    1.000
    N538     N        0.14258    0.41580    0.18683    1.000
    Si539    Si       0.18258    0.39822    0.18178    1.000
    N540     N        0.21578    0.40808    0.20981    1.000
    N541     N        0.19558    0.40169    0.13417    1.000
    N542     N        0.01436    0.38517    0.35511    1.000
    N543     N        0.01659    0.40771    0.29598    1.000
    N544     N        0.08128    0.40653    0.34873    1.000
    Si545    Si       0.01487    0.36875    0.31376    1.000
    Si546    Si       0.11952    0.38730    0.34128    1.000
    N547     N        0.13622    0.40585    0.30666    1.000
    Si548    Si       0.16161    0.40088    0.27300    1.000
    N549     N        0.20404    0.40910    0.27709    1.000
    N550     N        0.15780    0.36568    0.25089    1.000
    N551     N        0.15262    0.39515    0.37147    1.000
    Si552    Si       0.24067    0.36011    0.35920    1.000
    Si553    Si       0.05498    0.38929    0.37756    1.000
    N554     N        0.07895    0.38209    0.47408    1.000
    N555     N        0.01078    0.40390    0.46937    1.000
    Si556    Si       0.03849    0.37546    0.49091    1.000
    Si557    Si       0.08742    0.41152    0.44279    1.000
    N558     N        0.05061    0.41254    0.41439    1.000
    N559     N        0.22361    0.39164    0.38433    1.000
    Si560    Si       0.22003    0.39839    0.42716    1.000
    N561     N        0.14244    0.41523    0.48832    1.000
    N562     N        0.19025    0.36379    0.42755    1.000
    Si563    Si       0.18286    0.36681    0.38441    1.000
    N564     N        0.07683    0.40118    0.58450    1.000
    N565     N        0.03358    0.39024    0.53054    1.000
    Si566    Si       0.99709    0.38247    0.55031    1.000
    Si567    Si       0.23336    0.41711    0.58671    1.000
    N568     N        0.15899    0.41163    0.55283    1.000
    Si569    Si       0.12434    0.40479    0.52530    1.000
    Si570    Si       0.15888    0.39397    0.59247    1.000
    N571     N        0.20000    0.39137    0.60485    1.000
    N572     N        0.11811    0.36315    0.52659    1.000
    Si573    Si       0.06203    0.36720    0.65117    1.000
    N574     N        0.99229    0.39324    0.72107    1.000
    N575     N        0.07859    0.40966    0.65740    1.000
    N576     N        0.07659    0.41189    0.73079    1.000
    Si577    Si       0.03176    0.41038    0.73309    1.000
    N578     N        0.14218    0.36767    0.66733    1.000
    Si579    Si       0.12131    0.40289    0.65642    1.000
    N580     N        0.17721    0.38602    0.72957    1.000
    N581     N        0.02874    0.38468    0.77187    1.000
    Si582    Si       0.09655    0.37010    0.83091    1.000
    Si583    Si       0.10007    0.41277    0.76678    1.000
    N584     N        0.05228    0.36991    0.83235    1.000
    N585     N        0.11067    0.37652    0.78889    1.000
    Si586    Si       0.99129    0.36651    0.75610    1.000
    N587     N        0.12492    0.38758    0.85971    1.000
    N588     N        0.20002    0.39877    0.85887    1.000
    N589     N        0.21858    0.37115    0.79744    1.000
    Si590    Si       0.16766    0.37016    0.85854    1.000
    Si591    Si       0.21542    0.38370    0.75440    1.000
    Si592    Si       0.23221    0.39454    0.83153    1.000
    N593     N        0.02324    0.39721    0.89012    1.000
    Si594    Si       0.07527    0.40678    0.94767    1.000
    Si595    Si       0.00480    0.38982    0.92885    1.000
    N596     N        0.10877    0.39367    0.92293    1.000
    N597     N        0.04152    0.37832    0.94887    1.000
    N598     N        0.08302    0.39545    0.99146    1.000
    N599     N        0.17524    0.41961    0.92484    1.000
    Si600    Si       0.14561    0.40365    0.95739    1.000
    N601     N        0.05148    0.45626    0.06453    1.000
    Si602    Si       0.02697    0.43498    0.09351    1.000
    Si603    Si       0.09406    0.43141    0.08773    1.000
    N604     N        0.07998    0.46417    0.00989    1.000
    Si605    Si       0.06439    0.42941    0.02797    1.000
    N606     N        0.11041    0.47031    0.07453    1.000
    N607     N        0.02595    0.41954    0.01338    1.000
    Si608    Si       0.21346    0.45512    0.06388    1.000
    N609     N        0.17924    0.45329    0.08933    1.000
    Si610    Si       0.18424    0.44430    0.99992    1.000
    N611     N        0.21422    0.42380    0.03094    1.000
    N612     N        0.08729    0.44657    0.16177    1.000
    N613     N        0.02488    0.44810    0.13529    1.000
    N614     N        0.08897    0.46289    0.22450    1.000
    N615     N        0.15555    0.47268    0.14990    1.000
    Si616    Si       0.11603    0.42878    0.22448    1.000
    Si617    Si       0.12882    0.43871    0.15379    1.000
    N618     N        0.03570    0.45342    0.35036    1.000
    N619     N        0.08871    0.45693    0.29843    1.000
    Si620    Si       0.07996    0.44964    0.34149    1.000
    Si621    Si       0.06822    0.47004    0.26090    1.000
    Si622    Si       0.00612    0.42555    0.33580    1.000
    Si623    Si       0.00959    0.42362    0.25744    1.000
    N624     N        0.02795    0.46286    0.25104    1.000
    N625     N        0.12383    0.45761    0.35385    1.000
    N626     N        0.18491    0.45113    0.32340    1.000
    Si627    Si       0.21459    0.44897    0.29172    1.000
    Si628    Si       0.14066    0.45109    0.31093    1.000
    N629     N        0.14634    0.43902    0.25186    1.000
    N630     N        0.20676    0.47726    0.25737    1.000
    Si631    Si       0.16434    0.47759    0.25156    1.000
    N632     N        0.08289    0.45301    0.46152    1.000
    N633     N        0.00352    0.47083    0.43685    1.000
    Si634    Si       0.01480    0.42662    0.43285    1.000
    N635     N        0.15982    0.47830    0.45675    1.000
    Si636    Si       0.14680    0.43532    0.38263    1.000
    N637     N        0.17744    0.46728    0.38889    1.000
    Si638    Si       0.11802    0.46882    0.43863    1.000
    Si639    Si       0.17320    0.44146    0.47730    1.000
    Si640    Si       0.19423    0.47217    0.42913    1.000
    N641     N        0.19864    0.43125    0.44420    1.000
    N642     N        0.12289    0.43004    0.42036    1.000
    N643     N        0.02197    0.45071    0.55499    1.000
    Si644    Si       0.99758    0.44170    0.59153    1.000
    N645     N        0.09257    0.43395    0.53004    1.000
    N646     N        0.08882    0.46906    0.61221    1.000
    Si647    Si       0.08948    0.46652    0.50200    1.000
    Si648    Si       0.07253    0.42913    0.61871    1.000
    Si649    Si       0.05627    0.42125    0.55211    1.000
    Si650    Si       0.13157    0.46531    0.60913    1.000
    N651     N        0.21079    0.45328    0.57671    1.000
    Si652    Si       0.17698    0.45018    0.55084    1.000
    N653     N        0.19039    0.46270    0.51017    1.000
    N654     N        0.14629    0.47447    0.57003    1.000
    N655     N        0.13509    0.42089    0.61935    1.000
    N656     N        0.03021    0.43692    0.62175    1.000
    N657     N        0.03040    0.44223    0.69736    1.000
    Si658    Si       0.07733    0.43549    0.69271    1.000
    Si659    Si       0.01281    0.47359    0.72540    1.000
    Si660    Si       0.01182    0.43428    0.66003    1.000
    N661     N        0.08801    0.47676    0.67860    1.000
    Si662    Si       0.22928    0.44325    0.70943    1.000
    N663     N        0.12883    0.43188    0.68859    1.000
    Si664    Si       0.15945    0.42367    0.71829    1.000
    N665     N        0.18821    0.45500    0.70562    1.000
    Si666    Si       0.13045    0.47600    0.68155    1.000
    Si667    Si       0.09176    0.45710    0.83156    1.000
    N668     N        0.01710    0.43657    0.83323    1.000
    N669     N        0.02016    0.44551    0.75853    1.000
    N670     N        0.07632    0.43537    0.79699    1.000
    N671     N        0.07685    0.43677    0.86719    1.000
    Si672    Si       0.03430    0.42385    0.79551    1.000
    Si673    Si       0.03237    0.43665    0.87334    1.000
    N674     N        0.23266    0.42354    0.74828    1.000
    N675     N        0.19315    0.45890    0.79343    1.000
    N676     N        0.13518    0.45465    0.82646    1.000
    Si677    Si       0.15042    0.46379    0.78650    1.000
    N678     N        0.13998    0.43344    0.75664    1.000
    Si679    Si       0.23330    0.45078    0.78085    1.000
    Si680    Si       0.15979    0.47281    0.85861    1.000
    N681     N        0.05822    0.44730    0.94225    1.000
    N682     N        0.00597    0.46312    0.89779    1.000
    Si683    Si       0.08991    0.46802    0.96751    1.000
    Si684    Si       0.02708    0.47662    0.93362    1.000
    N685     N        0.00157    0.47801    0.96986    1.000
    Si686    Si       0.11157    0.41862    0.88507    1.000
    Si687    Si       0.20537    0.42653    0.89240    1.000
    N688     N        0.13363    0.45647    0.88871    1.000
    N689     N        0.21296    0.45376    0.96794    1.000
    N690     N        0.12435    0.44360    0.95962    1.000
    N691     N        0.20054    0.46677    0.87715    1.000
    Si692    Si       0.15216    0.45652    0.92583    1.000
    Si693    Si       0.07951    0.49129    0.04927    1.000
    N694     N        0.05862    0.52893    0.06157    1.000
    N695     N        0.11503    0.51765    0.03181    1.000
    N696     N        0.15727    0.51709    0.08853    1.000
    Si697    Si       0.19774    0.51784    0.02451    1.000
    N698     N        0.22073    0.49690    0.05755    1.000
    Si699    Si       0.14272    0.49160    0.05438    1.000
    Si700    Si       0.17792    0.48832    0.11576    1.000
    Si701    Si       0.23099    0.52256    0.09062    1.000
    N702     N        0.17129    0.48009    0.02328    1.000
    Si703    Si       0.02285    0.53016    0.16006    1.000
    N704     N        0.03905    0.50390    0.18893    1.000
    N705     N        0.10214    0.51331    0.17336    1.000
    Si706    Si       0.00937    0.48857    0.21866    1.000
    Si707    Si       0.07539    0.48142    0.18460    1.000
    N708     N        0.15381    0.50231    0.21857    1.000
    N709     N        0.21139    0.52419    0.20330    1.000
    Si710    Si       0.23394    0.50134    0.23348    1.000
    Si711    Si       0.21310    0.52916    0.15986    1.000
    N712     N        0.21993    0.50177    0.12788    1.000
    Si713    Si       0.14434    0.50456    0.17469    1.000
    N714     N        0.16988    0.53665    0.15716    1.000
    N715     N        0.07127    0.51279    0.27325    1.000
    N716     N        0.08115    0.50014    0.34493    1.000
    Si717    Si       0.03669    0.49658    0.35329    1.000
    N718     N        0.01725    0.51807    0.32075    1.000
    Si719    Si       0.10137    0.50506    0.30382    1.000
    N720     N        0.14297    0.48992    0.29027    1.000
    N721     N        0.18962    0.52119    0.33305    1.000
    Si722    Si       0.16229    0.53016    0.30008    1.000
    N723     N        0.23713    0.48717    0.36176    1.000
    Si724    Si       0.19510    0.48293    0.35222    1.000
    Si725    Si       0.02218    0.49314    0.46863    1.000
    Si726    Si       0.06924    0.53024    0.41833    1.000
    N727     N        0.10172    0.49906    0.41107    1.000
    N728     N        0.03735    0.52271    0.39025    1.000
    N729     N        0.05091    0.52422    0.45938    1.000
    N730     N        0.11281    0.50228    0.49793    1.000
    Si731    Si       0.07724    0.52849    0.49399    1.000
    Si732    Si       0.11673    0.50160    0.36983    1.000
    N733     N        0.23759    0.48480    0.42802    1.000
    Si734    Si       0.15478    0.51172    0.48629    1.000
    N735     N        0.14429    0.53597    0.37364    1.000
    N736     N        0.21277    0.52016    0.47268    1.000
    N737     N        0.01463    0.51775    0.56731    1.000
    Si738    Si       0.00155    0.51487    0.60931    1.000
    Si739    Si       0.01750    0.48830    0.53365    1.000
    N740     N        0.05182    0.48632    0.50660    1.000
    N741     N        0.98952    0.49678    0.50089    1.000
    N742     N        0.18624    0.51799    0.59563    1.000
    Si743    Si       0.15598    0.51793    0.56493    1.000
    Si744    Si       0.22212    0.49312    0.58736    1.000
    Si745    Si       0.21598    0.49959    0.51192    1.000
    N746     N        0.17403    0.52228    0.52606    1.000
    N747     N        0.23598    0.51491    0.54989    1.000
    N748     N        0.12450    0.54214    0.57679    1.000
    N749     N        0.03088    0.50776    0.64293    1.000
    N750     N        0.02873    0.51252    0.71429    1.000
    Si751    Si       0.07350    0.49845    0.64392    1.000
    Si752    Si       0.02234    0.53740    0.67579    1.000
    Si753    Si       0.04864    0.54127    0.74331    1.000
    N754     N        0.14505    0.50458    0.71266    1.000
    Si755    Si       0.18744    0.49916    0.70840    1.000
    N756     N        0.20697    0.51701    0.74309    1.000
    Si757    Si       0.17463    0.52389    0.63602    1.000
    N758     N        0.14785    0.48874    0.64156    1.000
    N759     N        0.20133    0.52442    0.67119    1.000
    Si760    Si       0.13282    0.53033    0.74753    1.000
    N761     N        0.08807    0.50094    0.82970    1.000
    N762     N        0.02556    0.50656    0.84673    1.000
    N763     N        0.98910    0.49385    0.79336    1.000
    Si764    Si       0.99711    0.53498    0.79172    1.000
    Si765    Si       0.99944    0.47667    0.83164    1.000
    Si766    Si       0.05943    0.53392    0.82709    1.000
    Si767    Si       0.12528    0.52373    0.82085    1.000
    N768     N        0.13688    0.50501    0.78376    1.000
    N769     N        0.15314    0.51451    0.85284    1.000
    N770     N        0.22023    0.53487    0.86634    1.000
    Si771    Si       0.06434    0.53490    0.95024    1.000
    N772     N        0.03902    0.51716    0.91838    1.000
    Si773    Si       0.00056    0.51761    0.98788    1.000
    N774     N        0.09800    0.50788    0.95325    1.000
    N775     N        0.04222    0.52883    0.98701    1.000
    Si776    Si       0.02661    0.53284    0.88047    1.000
    N777     N        0.21618    0.52514    0.98659    1.000
    Si778    Si       0.13656    0.52618    0.94057    1.000
    Si779    Si       0.23481    0.49500    0.88011    1.000
    Si780    Si       0.20660    0.49558    0.95457    1.000
    N781     N        0.16644    0.49621    0.93665    1.000
    N782     N        0.01772    0.57309    0.02794    1.000
    Si783    Si       0.04654    0.55756    0.09206    1.000
    N784     N        0.00274    0.56220    0.09069    1.000
    N785     N        0.09018    0.57681    0.01141    1.000
    Si786    Si       0.05636    0.54923    0.02360    1.000
    N787     N        0.06716    0.59635    0.09213    1.000
    N788     N        0.17038    0.55330    0.03512    1.000
    Si789    Si       0.16512    0.56078    0.07877    1.000
    N790     N        0.20561    0.55996    0.09384    1.000
    Si791    Si       0.13008    0.55454    0.01388    1.000
    N792     N        0.13663    0.59344    0.08036    1.000
    Si793    Si       0.23428    0.58967    0.07282    1.000
    Si794    Si       0.18628    0.59310    0.01970    1.000
    N795     N        0.06948    0.57143    0.19725    1.000
    N796     N        0.00438    0.56952    0.16489    1.000
    Si797    Si       0.08596    0.55035    0.16118    1.000
    Si798    Si       0.10288    0.58899    0.22143    1.000
    N799     N        0.05475    0.54172    0.13309    1.000
    Si800    Si       0.03201    0.59388    0.18815    1.000
    N801     N        0.11515    0.57398    0.14358    1.000
    Si802    Si       0.15415    0.57511    0.16369    1.000
    N803     N        0.14163    0.56970    0.20651    1.000
    N804     N        0.20915    0.58666    0.22327    1.000
    Si805    Si       0.17261    0.54246    0.22267    1.000
    N806     N        0.06340    0.57044    0.32319    1.000
    N807     N        0.02476    0.57132    0.27150    1.000
    Si808    Si       0.09953    0.58136    0.30202    1.000
    N809     N        0.09093    0.59111    0.26189    1.000
    Si810    Si       0.04425    0.54043    0.29451    1.000
    Si811    Si       0.20036    0.58849    0.26659    1.000
    N812     N        0.17652    0.55019    0.26629    1.000
    N813     N        0.19359    0.58984    0.34664    1.000
    N814     N        0.12317    0.54338    0.30845    1.000
    Si815    Si       0.18319    0.55237    0.36612    1.000
    N816     N        0.23934    0.58103    0.28991    1.000
    Si817    Si       0.23585    0.59842    0.32858    1.000
    N818     N        0.09984    0.56923    0.48720    1.000
    N819     N        0.09185    0.56851    0.42068    1.000
    Si820    Si       0.00390    0.55332    0.39329    1.000
    N821     N        0.02980    0.58665    0.39451    1.000
    Si822    Si       0.12206    0.57522    0.45080    1.000
    N823     N        0.20734    0.54169    0.40276    1.000
    N824     N        0.20851    0.58677    0.46767    1.000
    Si825    Si       0.19626    0.55060    0.44507    1.000
    N826     N        0.15462    0.54626    0.45764    1.000
    Si827    Si       0.02170    0.55816    0.55215    1.000
    N828     N        0.05629    0.55115    0.52560    1.000
    N829     N        0.03942    0.58460    0.58348    1.000
    Si830    Si       0.07672    0.58909    0.51725    1.000
    N831     N        0.09506    0.59441    0.61714    1.000
    Si832    Si       0.01388    0.58597    0.61934    1.000
    Si833    Si       0.11794    0.55778    0.61547    1.000
    Si834    Si       0.23301    0.55919    0.55650    1.000
    N835     N        0.20419    0.59077    0.56325    1.000
    Si836    Si       0.07863    0.57926    0.65430    1.000
    Si837    Si       0.08675    0.58639    0.72550    1.000
    N838     N        0.04303    0.58058    0.72735    1.000
    N839     N        0.03691    0.57501    0.65604    1.000
    N840     N        0.09246    0.54497    0.73670    1.000
    N841     N        0.09100    0.53787    0.64268    1.000
    N842     N        0.21874    0.58042    0.72201    1.000
    N843     N        0.15532    0.56374    0.63715    1.000
    N844     N        0.21753    0.58717    0.64760    1.000
    Si845    Si       0.22103    0.56168    0.68280    1.000
    N846     N        0.05067    0.56332    0.86125    1.000
    N847     N        0.10211    0.56022    0.81451    1.000
    N848     N        0.04010    0.53925    0.78716    1.000
    N849     N        0.17483    0.57699    0.84989    1.000
    N850     N        0.22382    0.56134    0.79310    1.000
    Si851    Si       0.21514    0.56646    0.83599    1.000
    Si852    Si       0.20053    0.55764    0.75535    1.000
    N853     N        0.15815    0.56388    0.75386    1.000
    N854     N        0.07659    0.57582    0.94570    1.000
    Si855    Si       0.11078    0.59112    0.92056    1.000
    N856     N        0.18846    0.55854    0.91512    1.000
    Si857    Si       0.17580    0.57636    0.95320    1.000
    N858     N        0.12529    0.55197    0.90604    1.000
    Si859    Si       0.22694    0.57058    0.89595    1.000
    Si860    Si       0.16325    0.54698    0.88057    1.000
    N861     N        0.14689    0.55109    0.97459    1.000
    N862     N        0.20752    0.59314    0.98105    1.000
    Si863    Si       0.05843    0.63453    0.07394    1.000
    N864     N        0.02015    0.63561    0.05223    1.000
    Si865    Si       0.01072    0.61351    0.01740    1.000
    N866     N        0.09489    0.64757    0.05088    1.000
    N867     N        0.99108    0.62745    0.11430    1.000
    Si868    Si       0.10674    0.60277    0.11235    1.000
    Si869    Si       0.13453    0.62653    0.05237    1.000
    N870     N        0.19948    0.61295    0.05643    1.000
    N871     N        0.14985    0.61792    0.01250    1.000
    N872     N        0.21242    0.65391    0.11396    1.000
    Si873    Si       0.19753    0.65208    0.07254    1.000
    N874     N        0.10460    0.64010    0.13193    1.000
    Si875    Si       0.08127    0.64127    0.17061    1.000
    N876     N        0.02152    0.61766    0.22420    1.000
    N877     N        0.04381    0.62465    0.16087    1.000
    N878     N        0.10159    0.63162    0.20745    1.000
    Si879    Si       0.02200    0.65268    0.13577    1.000
    Si880    Si       0.21868    0.61931    0.14082    1.000
    N881     N        0.17035    0.64431    0.22038    1.000
    N882     N        0.18313    0.60639    0.15904    1.000
    N883     N        0.23608    0.63468    0.17830    1.000
    Si884    Si       0.19895    0.62119    0.19894    1.000
    N885     N        0.00950    0.61557    0.32931    1.000
    N886     N        0.05427    0.64470    0.28452    1.000
    Si887    Si       0.01330    0.64765    0.30163    1.000
    Si888    Si       0.04993    0.60902    0.25743    1.000
    Si889    Si       0.10930    0.64125    0.35401    1.000
    N890     N        0.07575    0.61826    0.36725    1.000
    Si891    Si       0.04108    0.59570    0.35117    1.000
    N892     N        0.12355    0.61003    0.32537    1.000
    Si893    Si       0.16668    0.61577    0.32632    1.000
    N894     N        0.18245    0.62132    0.28599    1.000
    N895     N        0.08205    0.63604    0.43469    1.000
    Si896    Si       0.06830    0.60362    0.40834    1.000
    N897     N        0.13340    0.65424    0.38825    1.000
    N898     N        0.20832    0.65405    0.45681    1.000
    Si899    Si       0.18173    0.61951    0.47375    1.000
    Si900    Si       0.12512    0.64472    0.42995    1.000
    N901     N        0.14696    0.61016    0.44644    1.000
    N902     N        0.09587    0.61431    0.54686    1.000
    Si903    Si       0.07359    0.61275    0.58334    1.000
    Si904    Si       0.00259    0.61448    0.51611    1.000
    N905     N        0.05568    0.65078    0.59672    1.000
    N906     N        0.00694    0.65001    0.54119    1.000
    N907     N        0.99334    0.62309    0.61191    1.000
    Si908    Si       0.01571    0.65181    0.58486    1.000
    N909     N        0.04192    0.60634    0.50178    1.000
    N910     N        0.14627    0.65224    0.57022    1.000
    Si911    Si       0.18379    0.62959    0.55761    1.000
    N912     N        0.16575    0.62946    0.51488    1.000
    Si913    Si       0.12494    0.64400    0.53456    1.000
    N914     N        0.18459    0.62701    0.61190    1.000
    Si915    Si       0.22369    0.60237    0.60432    1.000
    N916     N        0.99787    0.63289    0.69429    1.000
    Si917    Si       0.02000    0.61601    0.72802    1.000
    N918     N        0.04984    0.64875    0.72457    1.000
    N919     N        0.09916    0.59907    0.68722    1.000
    Si920    Si       0.08948    0.65188    0.74434    1.000
    Si921    Si       0.12230    0.63290    0.68058    1.000
    Si922    Si       0.17621    0.60025    0.64648    1.000
    N923     N        0.16566    0.62286    0.68069    1.000
    Si924    Si       0.19421    0.65331    0.69135    1.000
    N925     N        0.21452    0.64792    0.72927    1.000
    N926     N        0.12455    0.65242    0.63971    1.000
    N927     N        0.07201    0.62145    0.82197    1.000
    N928     N        0.09423    0.61156    0.75938    1.000
    Si929    Si       0.05796    0.60499    0.86132    1.000
    Si930    Si       0.10280    0.60046    0.80140    1.000
    N931     N        0.99016    0.61835    0.75870    1.000
    Si932    Si       0.16386    0.61838    0.84694    1.000
    N933     N        0.13693    0.62094    0.81396    1.000
    N934     N        0.19931    0.64330    0.84307    1.000
    N935     N        0.02427    0.62851    0.87240    1.000
    N936     N        0.03555    0.61799    0.98056    1.000
    N937     N        0.08930    0.61584    0.89150    1.000
    N938     N        0.09704    0.63720    0.97043    1.000
    Si939    Si       0.99942    0.62456    0.95681    1.000
    Si940    Si       0.07457    0.60214    0.97890    1.000
    Si941    Si       0.17378    0.64188    0.92059    1.000
    Si942    Si       0.14006    0.63519    0.97445    1.000
    Si943    Si       0.22269    0.64370    0.88286    1.000
    N944     N        0.21141    0.61920    0.91819    1.000
    Si945    Si       0.23594    0.60359    0.95226    1.000
    N946     N        0.14781    0.60819    0.93882    1.000
    N947     N        0.15069    0.64000    0.88358    1.000
    Si948    Si       0.09991    0.68828    0.03447    1.000
    N949     N        0.04961    0.66843    0.10390    1.000
    Si950    Si       0.03601    0.70133    0.07529    1.000
    N951     N        0.05906    0.70287    0.03813    1.000
    N952     N        0.99403    0.69322    0.06850    1.000
    N953     N        0.11464    0.70868    0.11305    1.000
    N954     N        0.22646    0.67668    0.04921    1.000
    Si955    Si       0.14668    0.70469    0.08323    1.000
    Si956    Si       0.22376    0.70509    0.01698    1.000
    N957     N        0.15665    0.66263    0.06997    1.000
    Si958    Si       0.08635    0.67891    0.12644    1.000
    N959     N        0.99956    0.68511    0.15095    1.000
    N960     N        0.07301    0.68427    0.16797    1.000
    Si961    Si       0.08472    0.71251    0.19590    1.000
    N962     N        0.12766    0.69609    0.20634    1.000
    Si963    Si       0.20791    0.69140    0.13239    1.000
    Si964    Si       0.13065    0.65823    0.22929    1.000
    N965     N        0.20005    0.69383    0.17515    1.000
    N966     N        0.01171    0.68715    0.31411    1.000
    N967     N        0.09089    0.67712    0.33819    1.000
    Si968    Si       0.09003    0.67158    0.29354    1.000
    N969     N        0.07456    0.71269    0.28410    1.000
    Si970    Si       0.07025    0.70197    0.37096    1.000
    N971     N        0.19087    0.69517    0.27688    1.000
    N972     N        0.12453    0.66518    0.27072    1.000
    Si973    Si       0.16609    0.66269    0.28702    1.000
    Si974    Si       0.16188    0.68044    0.36786    1.000
    N975     N        0.16257    0.65929    0.33080    1.000
    Si976    Si       0.00892    0.70176    0.40909    1.000
    N977     N        0.07987    0.70435    0.46071    1.000
    N978     N        0.04693    0.68304    0.40162    1.000
    N979     N        0.02550    0.66970    0.47306    1.000
    Si980    Si       0.05739    0.67072    0.44626    1.000
    N981     N        0.20060    0.67773    0.38213    1.000
    Si982    Si       0.23846    0.65940    0.37330    1.000
    Si983    Si       0.11685    0.69956    0.48334    1.000
    N984     N        0.14074    0.67683    0.45613    1.000
    Si985    Si       0.18293    0.68995    0.45886    1.000
    Si986    Si       0.01233    0.68518    0.51232    1.000
    N987     N        0.10230    0.69930    0.60144    1.000
    N988     N        0.11103    0.68470    0.52284    1.000
    N989     N        0.99120    0.68526    0.60315    1.000
    Si990    Si       0.10912    0.71041    0.55990    1.000
    N991     N        0.23099    0.70825    0.61237    1.000
    Si992    Si       0.21901    0.69088    0.52391    1.000
    N993     N        0.21469    0.66184    0.55601    1.000
    Si994    Si       0.15524    0.66068    0.61141    1.000
    N995     N        0.18644    0.70546    0.49903    1.000
    N996     N        0.16834    0.70327    0.62073    1.000
    Si997    Si       0.08391    0.66846    0.62616    1.000
    Si998    Si       0.02682    0.66590    0.68832    1.000
    N999     N        0.05860    0.67905    0.65961    1.000
    N1000    N        0.00255    0.70203    0.69077    1.000
    N1001    N        0.11813    0.65996    0.71308    1.000
    N1002    N        0.17840    0.69827    0.68998    1.000
    Si1003   Si       0.13621    0.70002    0.70203    1.000
    Si1004   Si       0.20351    0.70144    0.64975    1.000
    N1005    N        0.22450    0.66390    0.66178    1.000
    N1006    N        0.03054    0.68141    0.82175    1.000
    N1007    N        0.09089    0.68299    0.77753    1.000
    N1008    N        0.09836    0.67546    0.84858    1.000
    Si1009   Si       0.01384    0.66894    0.86044    1.000
    Si1010   Si       0.07162    0.66530    0.81616    1.000
    Si1011   Si       0.00345    0.70736    0.80200    1.000
    N1012    N        0.17035    0.67805    0.78179    1.000
    Si1013   Si       0.19700    0.67962    0.81852    1.000
    Si1014   Si       0.20837    0.68017    0.75805    1.000
    N1015    N        0.23220    0.67770    0.79338    1.000
    Si1016   Si       0.13290    0.70060    0.77803    1.000
    N1017    N        0.99681    0.65908    0.93294    1.000
    Si1018   Si       0.08776    0.67721    0.95993    1.000
    N1019    N        0.02732    0.69906    0.88916    1.000
    N1020    N        0.04805    0.69682    0.96466    1.000
    Si1021   Si       0.01989    0.69824    0.93265    1.000
    N1022    N        0.10786    0.67897    0.92172    1.000
    N1023    N        0.11035    0.69703    0.99185    1.000
    Si1024   Si       0.10902    0.65327    0.88593    1.000
    Si1025   Si       0.19324    0.69896    0.96012    1.000
    N1026    N        0.23273    0.69125    0.97627    1.000
    N1027    N        0.16812    0.66370    0.95906    1.000
    N1028    N        0.20051    0.67782    0.90208    1.000
    N1029    N        0.04146    0.73357    0.10391    1.000
    N1030    N        0.01361    0.74275    0.02055    1.000
    Si1031   Si       0.04873    0.72332    0.99977    1.000
    N1032    N        0.23989    0.74468    0.02583    1.000
    Si1033   Si       0.14169    0.72578    0.00592    1.000
    Si1034   Si       0.20514    0.76196    0.00084    1.000
    N1035    N        0.13014    0.71862    0.04706    1.000
    N1036    N        0.18388    0.71684    0.10541    1.000
    N1037    N        0.18507    0.72159    0.99961    1.000
    Si1038   Si       0.01850    0.73888    0.20895    1.000
    Si1039   Si       0.01020    0.72684    0.13402    1.000
    N1040    N        0.02175    0.75154    0.16712    1.000
    N1041    N        0.09529    0.75051    0.17612    1.000
    N1042    N        0.05616    0.72843    0.22404    1.000
    N1043    N        0.09789    0.77457    0.24521    1.000
    N1044    N        0.22706    0.76936    0.13412    1.000
    Si1045   Si       0.11855    0.74556    0.13971    1.000
    N1046    N        0.15901    0.74193    0.15839    1.000
    Si1047   Si       0.18569    0.75335    0.12643    1.000
    Si1048   Si       0.21776    0.75593    0.22036    1.000
    N1049    N        0.17992    0.73751    0.22549    1.000
    Si1050   Si       0.16502    0.71567    0.19152    1.000
    N1051    N        0.04909    0.73287    0.34873    1.000
    Si1052   Si       0.06769    0.74918    0.26109    1.000
    N1053    N        0.03415    0.75946    0.29333    1.000
    Si1054   Si       0.04086    0.71910    0.30850    1.000
    Si1055   Si       0.15951    0.75907    0.33499    1.000
    Si1056   Si       0.18330    0.73642    0.26717    1.000
    N1057    N        0.14871    0.75304    0.29090    1.000
    N1058    N        0.21938    0.76314    0.26476    1.000
    N1059    N        0.15462    0.72309    0.36349    1.000
    N1060    N        0.00362    0.76356    0.49011    1.000
    N1061    N        0.09321    0.72762    0.39745    1.000
    Si1062   Si       0.07134    0.73909    0.43372    1.000
    N1063    N        0.02623    0.73548    0.42956    1.000
    Si1064   Si       0.00439    0.76818    0.44678    1.000
    N1065    N        0.20869    0.75662    0.38047    1.000
    Si1066   Si       0.22162    0.71829    0.39869    1.000
    Si1067   Si       0.18644    0.76431    0.41780    1.000
    N1068    N        0.13198    0.74102    0.49019    1.000
    Si1069   Si       0.12838    0.74852    0.38817    1.000
    N1070    N        0.19207    0.72256    0.43071    1.000
    N1071    N        0.14366    0.76678    0.42453    1.000
    Si1072   Si       0.12506    0.77481    0.46227    1.000
    Si1073   Si       0.03909    0.74992    0.55892    1.000
    N1074    N        0.01883    0.75471    0.59744    1.000
    N1075    N        0.08171    0.74695    0.56313    1.000
    N1076    N        0.02384    0.71502    0.54098    1.000
    Si1077   Si       0.23012    0.75999    0.52402    1.000
    Si1078   Si       0.16445    0.73837    0.51825    1.000
    N1079    N        0.21786    0.72703    0.54958    1.000
    N1080    N        0.15169    0.72493    0.55955    1.000
    Si1081   Si       0.19107    0.72403    0.58526    1.000
    N1082    N        0.19092    0.76641    0.59742    1.000
    N1083    N        0.12143    0.76598    0.61363    1.000
    N1084    N        0.06360    0.72304    0.71932    1.000
    N1085    N        0.06226    0.75841    0.66202    1.000
    Si1086   Si       0.01956    0.73062    0.72111    1.000
    Si1087   Si       0.07161    0.71701    0.67666    1.000
    N1088    N        0.00396    0.76835    0.70606    1.000
    N1089    N        0.22262    0.71744    0.74245    1.000
    N1090    N        0.11533    0.71719    0.66853    1.000
    N1091    N        0.18123    0.76894    0.71178    1.000
    N1092    N        0.22540    0.73436    0.66826    1.000
    Si1093   Si       0.20373    0.73249    0.70502    1.000
    N1094    N        0.13850    0.72142    0.73908    1.000
    Si1095   Si       0.14816    0.76417    0.73755    1.000
    Si1096   Si       0.12931    0.72406    0.62709    1.000
    N1097    N        0.07668    0.73930    0.84976    1.000
    N1098    N        0.00414    0.73843    0.83371    1.000
    N1099    N        0.07550    0.75817    0.77976    1.000
    Si1100   Si       0.03631    0.73497    0.86564    1.000
    Si1101   Si       0.06716    0.71839    0.76210    1.000
    N1102    N        0.02201    0.71862    0.76388    1.000
    Si1103   Si       0.11478    0.71545    0.84653    1.000
    Si1104   Si       0.23725    0.73721    0.84337    1.000
    N1105    N        0.13372    0.72902    0.81106    1.000
    Si1106   Si       0.14953    0.76880    0.81469    1.000
    N1107    N        0.16617    0.77309    0.77576    1.000
    N1108    N        0.19999    0.71197    0.84531    1.000
    Si1109   Si       0.99532    0.76887    0.91401    1.000
    N1110    N        0.06778    0.76349    0.99250    1.000
    N1111    N        0.99443    0.73378    0.93910    1.000
    N1112    N        0.10323    0.74609    0.93427    1.000
    N1113    N        0.03152    0.77248    0.89097    1.000
    N1114    N        0.14073    0.71766    0.87924    1.000
    N1115    N        0.13541    0.76717    0.99519    1.000
    Si1116   Si       0.12737    0.71658    0.91959    1.000
    Si1117   Si       0.18618    0.71518    0.88700    1.000
    N1118    N        0.17087    0.72702    0.93375    1.000
    N1119    N        0.21585    0.75037    0.89549    1.000
    Si1120   Si       0.18664    0.76599    0.92529    1.000
    N1121    N        0.05760    0.78877    0.05681    1.000
    Si1122   Si       0.08257    0.82396    0.05483    1.000
    Si1123   Si       0.03957    0.78205    0.01910    1.000
    N1124    N        0.01199    0.81258    0.00339    1.000
    N1125    N        0.10422    0.77299    0.10989    1.000
    Si1126   Si       0.06173    0.77138    0.09620    1.000
    N1127    N        0.12345    0.80806    0.05391    1.000
    Si1128   Si       0.14971    0.80234    0.01810    1.000
    Si1129   Si       0.13319    0.80138    0.09529    1.000
    N1130    N        0.19098    0.79597    0.02218    1.000
    Si1131   Si       0.20923    0.80788    0.10202    1.000
    N1132    N        0.17157    0.78459    0.10211    1.000
    Si1133   Si       0.21487    0.82484    0.04328    1.000
    N1134    N        0.23990    0.79929    0.07040    1.000
    N1135    N        0.04355    0.80072    0.12202    1.000
    N1136    N        0.99618    0.81142    0.16928    1.000
    Si1137   Si       0.09881    0.78546    0.20267    1.000
    Si1138   Si       0.03536    0.79227    0.16378    1.000
    N1139    N        0.06541    0.81031    0.19185    1.000
    N1140    N        0.00160    0.77449    0.23028    1.000
    N1141    N        0.13684    0.80444    0.19519    1.000
    Si1142   Si       0.23306    0.80372    0.16431    1.000
    Si1143   Si       0.17293    0.81413    0.21650    1.000
    N1144    N        0.21444    0.83177    0.13890    1.000
    N1145    N        0.21049    0.79481    0.20120    1.000
    N1146    N        0.06607    0.80575    0.34993    1.000
    N1147    N        0.99763    0.78340    0.34767    1.000
    Si1148   Si       0.10941    0.81532    0.34438    1.000
    N1149    N        0.11113    0.81534    0.30218    1.000
    Si1150   Si       0.99634    0.77483    0.27491    1.000
    Si1151   Si       0.03836    0.77367    0.33444    1.000
    Si1152   Si       0.22660    0.77752    0.34782    1.000
    N1153    N        0.19251    0.78688    0.32280    1.000
    Si1154   Si       0.12892    0.78729    0.27312    1.000
    Si1155   Si       0.20254    0.80169    0.28229    1.000
    N1156    N        0.16695    0.80404    0.25910    1.000
    N1157    N        0.13004    0.77963    0.35774    1.000
    N1158    N        0.22705    0.83586    0.27657    1.000
    N1159    N        0.02396    0.80687    0.44188    1.000
    Si1160   Si       0.06347    0.81587    0.45764    1.000
    N1161    N        0.08174    0.77590    0.45511    1.000
    N1162    N        0.21259    0.79424    0.43546    1.000
    N1163    N        0.14248    0.81215    0.47878    1.000
    N1164    N        0.03525    0.79255    0.54156    1.000
    N1165    N        0.06728    0.80502    0.60992    1.000
    N1166    N        0.10114    0.81483    0.55483    1.000
    Si1167   Si       0.09507    0.78198    0.58242    1.000
    Si1168   Si       0.05900    0.82944    0.53905    1.000
    Si1169   Si       0.99615    0.79370    0.52011    1.000
    Si1170   Si       0.17654    0.81615    0.50502    1.000
    Si1171   Si       0.22471    0.79123    0.58690    1.000
    N1172    N        0.21438    0.83367    0.59155    1.000
    N1173    N        0.19018    0.77574    0.51664    1.000
    N1174    N        0.02124    0.80913    0.65493    1.000
    Si1175   Si       0.08700    0.78701    0.68631    1.000
    Si1176   Si       0.01790    0.80942    0.69635    1.000
    N1177    N        0.05800    0.80849    0.71291    1.000
    N1178    N        0.10690    0.81830    0.66666    1.000
    N1179    N        0.11143    0.78014    0.72381    1.000
    Si1180   Si       0.04022    0.77600    0.62995    1.000
    N1181    N        0.22929    0.82240    0.69762    1.000
    Si1182   Si       0.18817    0.80969    0.69198    1.000
    Si1183   Si       0.13297    0.80366    0.63432    1.000
    N1184    N        0.17361    0.80658    0.65207    1.000
    N1185    N        0.04974    0.80356    0.83489    1.000
    N1186    N        0.07366    0.82623    0.77489    1.000
    Si1187   Si       0.07789    0.78846    0.75066    1.000
    Si1188   Si       0.07709    0.77408    0.81985    1.000
    N1189    N        0.11676    0.79503    0.82307    1.000
    N1190    N        0.22129    0.80830    0.76631    1.000
    N1191    N        0.18598    0.78311    0.83557    1.000
    Si1192   Si       0.18426    0.81300    0.86870    1.000
    Si1193   Si       0.20607    0.77923    0.79487    1.000
    N1194    N        0.22336    0.82939    0.87058    1.000
    N1195    N        0.99409    0.80604    0.93698    1.000
    N1196    N        0.10407    0.81507    0.95202    1.000
    Si1197   Si       0.05244    0.80648    0.87677    1.000
    N1198    N        0.09548    0.81665    0.88418    1.000
    Si1199   Si       0.10069    0.77346    0.96737    1.000
    Si1200   Si       0.12712    0.82209    0.91591    1.000
    N1201    N        0.21113    0.77717    0.96069    1.000
    N1202    N        0.16294    0.79762    0.90645    1.000
    N1203    N        0.06805    0.85609    0.08138    1.000
    N1204    N        0.99740    0.85340    0.10888    1.000
    N1205    N        0.02560    0.88294    0.02674    1.000
    Si1206   Si       0.04005    0.84400    0.11307    1.000
    Si1207   Si       0.09872    0.86515    0.11374    1.000
    Si1208   Si       0.03456    0.85001    0.00156    1.000
    N1209    N        0.07522    0.83802    0.01420    1.000
    Si1210   Si       0.05218    0.89424    0.06033    1.000
    N1211    N        0.13511    0.84231    0.10891    1.000
    Si1212   Si       0.16839    0.87281    0.01238    1.000
    N1213    N        0.20932    0.85938    0.01671    1.000
    Si1214   Si       0.16537    0.86994    0.09024    1.000
    N1215    N        0.19321    0.84025    0.07726    1.000
    N1216    N        0.14403    0.84084    0.99756    1.000
    N1217    N        0.15203    0.88596    0.05161    1.000
    N1218    N        0.06463    0.86551    0.14225    1.000
    Si1219   Si       0.06808    0.84604    0.21767    1.000
    N1220    N        0.05445    0.88530    0.20978    1.000
    N1221    N        0.10451    0.84955    0.24438    1.000
    N1222    N        0.22784    0.89522    0.17703    1.000
    Si1223   Si       0.19124    0.89231    0.20601    1.000
    N1224    N        0.17190    0.85782    0.22056    1.000
    Si1225   Si       0.22389    0.87373    0.13774    1.000
    N1226    N        0.06678    0.86473    0.31258    1.000
    N1227    N        0.00932    0.85374    0.34456    1.000
    Si1228   Si       0.05222    0.84664    0.34872    1.000
    Si1229   Si       0.00565    0.84644    0.26149    1.000
    N1230    N        0.00809    0.88470    0.28019    1.000
    N1231    N        0.04612    0.83510    0.25423    1.000
    Si1232   Si       0.08170    0.83891    0.28107    1.000
    Si1233   Si       0.20984    0.87660    0.27648    1.000
    N1234    N        0.16548    0.87890    0.28690    1.000
    Si1235   Si       0.14126    0.87148    0.25049    1.000
    N1236    N        0.19952    0.84216    0.37153    1.000
    Si1237   Si       0.99904    0.83876    0.45484    1.000
    N1238    N        0.09329    0.84443    0.44090    1.000
    N1239    N        0.00878    0.88153    0.45639    1.000
    N1240    N        0.05962    0.87207    0.38369    1.000
    Si1241   Si       0.09717    0.86704    0.40331    1.000
    N1242    N        0.05443    0.84035    0.49791    1.000
    Si1243   Si       0.23701    0.86848    0.49565    1.000
    N1244    N        0.12178    0.84661    0.37204    1.000
    Si1245   Si       0.16238    0.86245    0.38160    1.000
    N1246    N        0.20702    0.83999    0.48265    1.000
    Si1247   Si       0.13187    0.85021    0.45901    1.000
    Si1248   Si       0.20348    0.83662    0.43862    1.000
    N1249    N        0.14408    0.88681    0.47800    1.000
    N1250    N        0.16531    0.85486    0.42725    1.000
    N1251    N        0.04447    0.87075    0.54936    1.000
    N1252    N        0.07814    0.87602    0.60859    1.000
    N1253    N        0.01739    0.85049    0.60769    1.000
    Si1254   Si       0.03052    0.87897    0.50465    1.000
    Si1255   Si       0.00611    0.87518    0.57248    1.000
    N1256    N        0.99236    0.89327    0.51892    1.000
    N1257    N        0.11700    0.88246    0.55043    1.000
    Si1258   Si       0.20349    0.86170    0.55959    1.000
    Si1259   Si       0.13299    0.84444    0.56322    1.000
    N1260    N        0.16862    0.84188    0.53793    1.000
    Si1261   Si       0.18384    0.83758    0.62322    1.000
    N1262    N        0.14685    0.83254    0.60248    1.000
    Si1263   Si       0.05363    0.84307    0.62848    1.000
    Si1264   Si       0.06951    0.84800    0.73585    1.000
    N1265    N        0.99917    0.84796    0.71121    1.000
    N1266    N        0.04924    0.87326    0.66335    1.000
    N1267    N        0.04638    0.88273    0.73804    1.000
    Si1268   Si       0.02429    0.88277    0.69989    1.000
    N1269    N        0.10834    0.86076    0.72735    1.000
    N1270    N        0.11838    0.88699    0.66585    1.000
    Si1271   Si       0.12404    0.84994    0.68908    1.000
    Si1272   Si       0.23045    0.86171    0.67721    1.000
    N1273    N        0.19692    0.86901    0.64959    1.000
    Si1274   Si       0.14975    0.86942    0.73848    1.000
    N1275    N        0.16198    0.83811    0.71003    1.000
    N1276    N        0.07929    0.86531    0.83677    1.000
    N1277    N        0.01626    0.86034    0.80030    1.000
    Si1278   Si       0.05277    0.83962    0.81096    1.000
    Si1279   Si       0.11175    0.83134    0.84690    1.000
    N1280    N        0.15160    0.84234    0.86003    1.000
    N1281    N        0.17075    0.87122    0.77541    1.000
    N1282    N        0.23144    0.86753    0.80844    1.000
    N1283    N        0.03543    0.86296    0.96083    1.000
    Si1284   Si       0.01090    0.84574    0.92718    1.000
    N1285    N        0.03529    0.84216    0.89114    1.000
    Si1286   Si       0.10387    0.84605    0.98175    1.000
    Si1287   Si       0.05083    0.88159    0.87592    1.000
    N1288    N        0.10074    0.88873    0.97406    1.000
    N1289    N        0.22652    0.84511    0.94181    1.000
    N1290    N        0.19426    0.89010    0.89661    1.000
    Si1291   Si       0.22569    0.85954    0.90214    1.000
    Si1292   Si       0.23536    0.85981    0.98245    1.000
    N1293    N        0.13817    0.86377    0.92301    1.000
    Si1294   Si       0.15513    0.87790    0.88498    1.000
    N1295    N        0.02671    0.91620    0.08748    1.000
    N1296    N        0.08592    0.91301    0.04140    1.000
    N1297    N        0.99880    0.94753    0.02321    1.000
    Si1298   Si       0.09326    0.92540    0.00115    1.000
    Si1299   Si       0.03612    0.94835    0.11429    1.000
    Si1300   Si       0.98849    0.89289    0.09194    1.000
    N1301    N        0.11930    0.90309    0.10521    1.000
    Si1302   Si       0.12306    0.91515    0.06318    1.000
    N1303    N        0.19558    0.94537    0.02209    1.000
    N1304    N        0.19053    0.89557    0.11804    1.000
    N1305    N        0.09913    0.92165    0.16960    1.000
    N1306    N        0.03000    0.93076    0.15525    1.000
    Si1307   Si       0.05475    0.92263    0.23301    1.000
    Si1308   Si       0.05917    0.90033    0.16752    1.000
    Si1309   Si       0.99884    0.94087    0.18441    1.000
    Si1310   Si       0.11039    0.93837    0.13152    1.000
    N1311    N        0.01947    0.94653    0.22328    1.000
    N1312    N        0.21836    0.89827    0.24017    1.000
    N1313    N        0.13060    0.91314    0.24267    1.000
    Si1314   Si       0.12490    0.93607    0.20388    1.000
    N1315    N        0.16309    0.91551    0.18396    1.000
    Si1316   Si       0.17794    0.92731    0.14520    1.000
    N1317    N        0.03703    0.92035    0.34198    1.000
    N1318    N        0.06691    0.91944    0.27363    1.000
    Si1319   Si       0.10669    0.94045    0.26723    1.000
    Si1320   Si       0.04230    0.89798    0.30363    1.000
    N1321    N        0.12078    0.93696    0.31252    1.000
    Si1322   Si       0.22789    0.93927    0.32344    1.000
    Si1323   Si       0.15597    0.90906    0.31789    1.000
    N1324    N        0.16483    0.89910    0.35877    1.000
    N1325    N        0.22887    0.94329    0.36740    1.000
    N1326    N        0.23327    0.89798    0.30858    1.000
    N1327    N        0.18454    0.94204    0.31262    1.000
    Si1328   Si       0.03615    0.90801    0.38468    1.000
    Si1329   Si       0.03121    0.92114    0.45657    1.000
    N1330    N        0.05299    0.92847    0.41822    1.000
    Si1331   Si       0.09769    0.93907    0.41707    1.000
    N1332    N        0.99689    0.94407    0.46581    1.000
    N1333    N        0.99299    0.89906    0.39283    1.000
    N1334    N        0.05131    0.91613    0.49521    1.000
    N1335    N        0.22729    0.90467    0.47631    1.000
    N1336    N        0.17160    0.94418    0.46043    1.000
    Si1337   Si       0.23340    0.89916    0.43322    1.000
    N1338    N        0.12156    0.90200    0.41629    1.000
    Si1339   Si       0.20071    0.93714    0.49187    1.000
    N1340    N        0.19652    0.90865    0.41475    1.000
    Si1341   Si       0.15888    0.90310    0.43935    1.000
    Si1342   Si       0.18883    0.93069    0.37908    1.000
    N1343    N        0.06728    0.93491    0.56560    1.000
    Si1344   Si       0.06958    0.94460    0.52200    1.000
    Si1345   Si       0.07753    0.89257    0.56789    1.000
    N1346    N        0.11249    0.94063    0.50759    1.000
    N1347    N        0.17889    0.91991    0.52567    1.000
    Si1348   Si       0.19756    0.93106    0.56238    1.000
    Si1349   Si       0.13857    0.90518    0.51680    1.000
    N1350    N        0.19855    0.89582    0.58648    1.000
    N1351    N        0.23796    0.94886    0.56486    1.000
    N1352    N        0.01332    0.92489    0.70195    1.000
    N1353    N        0.07314    0.94070    0.63728    1.000
    Si1354   Si       0.08102    0.89987    0.64398    1.000
    Si1355   Si       0.14984    0.91611    0.67700    1.000
    N1356    N        0.24168    0.92449    0.63362    1.000
    Si1357   Si       0.20090    0.91807    0.72440    1.000
    Si1358   Si       0.20167    0.90377    0.62748    1.000
    N1359    N        0.23026    0.90051    0.69818    1.000
    N1360    N        0.16880    0.92928    0.64091    1.000
    N1361    N        0.16289    0.90284    0.71512    1.000
    N1362    N        0.05152    0.92212    0.79653    1.000
    N1363    N        0.07209    0.92711    0.85640    1.000
    Si1364   Si       0.08222    0.90562    0.82088    1.000
    Si1365   Si       0.03210    0.94521    0.86339    1.000
    Si1366   Si       0.02439    0.89565    0.77635    1.000
    N1367    N        0.98882    0.91863    0.76654    1.000
    N1368    N        0.12039    0.91655    0.80355    1.000
    N1369    N        0.22054    0.91994    0.76206    1.000
    Si1370   Si       0.15225    0.92805    0.83425    1.000
    N1371    N        0.19326    0.91417    0.83066    1.000
    Si1372   Si       0.21707    0.91455    0.86786    1.000
    Si1373   Si       0.20280    0.89481    0.79334    1.000
    N1374    N        0.01360    0.90585    0.87010    1.000
    N1375    N        0.05685    0.93097    0.97828    1.000
    Si1376   Si       0.09922    0.93049    0.89099    1.000
    N1377    N        0.07346    0.89808    0.91142    1.000
    Si1378   Si       0.06194    0.89507    0.95289    1.000
    Si1379   Si       0.13580    0.89793    0.95189    1.000
    N1380    N        0.13428    0.91284    0.87028    1.000
    N1381    N        0.17046    0.89947    0.97781    1.000
    N1382    N        0.12534    0.93383    0.93043    1.000
    Si1383   Si       0.20489    0.92542    0.98373    1.000
    N1384    N        0.24303    0.90201    0.98139    1.000
    Si1385   Si       0.07033    0.00097    0.10385    1.000
    N1386    N        0.00060    0.00507    0.05129    1.000
    N1387    N        0.02669    0.99207    0.11464    1.000
    N1388    N        0.07875    0.96030    0.11298    1.000
    N1389    N        0.04388    0.99664    0.99765    1.000
    Si1390   Si       0.15697    0.96543    0.02293    1.000
    Si1391   Si       0.15898    0.97711    0.09193    1.000
    N1392    N        0.20139    0.96910    0.08896    1.000
    Si1393   Si       0.22404    0.95869    0.05284    1.000
    N1394    N        0.13974    0.95472    0.06043    1.000
    N1395    N        0.08710    0.95291    0.22514    1.000
    Si1396   Si       0.06834    0.99154    0.22059    1.000
    N1397    N        0.05003    0.00699    0.18451    1.000
    Si1398   Si       0.01354    0.00993    0.15581    1.000
    Si1399   Si       0.22678    0.97534    0.12378    1.000
    Si1400   Si       0.16505    0.98452    0.16600    1.000
    N1401    N        0.14537    0.97638    0.20207    1.000
    N1402    N        0.20310    0.96101    0.16146    1.000
    N1403    N        0.14816    0.96058    0.13044    1.000
    Si1404   Si       0.13924    0.00539    0.23456    1.000
    N1405    N        0.06054    0.98289    0.32570    1.000
    N1406    N        0.00191    0.98501    0.34764    1.000
    Si1407   Si       0.00364    0.97737    0.25334    1.000
    Si1408   Si       0.09933    0.96772    0.33452    1.000
    Si1409   Si       0.02473    0.95708    0.32638    1.000
    N1410    N        0.04122    0.00067    0.25393    1.000
    N1411    N        0.00359    0.95138    0.29009    1.000
    Si1412   Si       0.15685    0.97506    0.30234    1.000
    N1413    N        0.12930    0.98229    0.26914    1.000
    N1414    N        0.13341    0.99739    0.33919    1.000
    N1415    N        0.09906    0.96052    0.37964    1.000
    N1416    N        0.99584    0.99568    0.41518    1.000
    N1417    N        0.99523    0.00982    0.48389    1.000
    N1418    N        0.11386    0.96956    0.44388    1.000
    N1419    N        0.22755    0.97225    0.43172    1.000
    N1420    N        0.16692    0.96641    0.39388    1.000
    Si1421   Si       0.13282    0.98896    0.38177    1.000
    Si1422   Si       0.13860    0.96426    0.48105    1.000
    Si1423   Si       0.18461    0.97515    0.43122    1.000
    Si1424   Si       0.01434    0.99510    0.52260    1.000
    N1425    N        0.01159    0.96716    0.60322    1.000
    N1426    N        0.05506    0.98648    0.51392    1.000
    Si1427   Si       0.05675    0.95874    0.60021    1.000
    N1428    N        0.06840    0.00327    0.59171    1.000
    N1429    N        0.99442    0.96035    0.53570    1.000
    N1430    N        0.17646    0.96454    0.57674    1.000
    Si1431   Si       0.17008    0.99843    0.54766    1.000
    N1432    N        0.16424    0.99082    0.50541    1.000
    N1433    N        0.22744    0.96706    0.50460    1.000
    Si1434   Si       0.16383    0.96652    0.61925    1.000
    Si1435   Si       0.99476    0.99715    0.62800    1.000
    Si1436   Si       0.09910    0.97039    0.65683    1.000
    N1437    N        0.00719    0.98864    0.66783    1.000
    N1438    N        0.07582    0.00240    0.67470    1.000
    Si1439   Si       0.00215    0.94833    0.73855    1.000
    N1440    N        0.12311    0.98238    0.62234    1.000
    N1441    N        0.18552    0.99770    0.64113    1.000
    Si1442   Si       0.22873    0.98274    0.71140    1.000
    Si1443   Si       0.14925    0.97350    0.71646    1.000
    N1444    N        0.19010    0.95926    0.71504    1.000
    N1445    N        0.12622    0.95263    0.68539    1.000
    N1446    N        0.01966    0.97787    0.83697    1.000
    N1447    N        0.08139    0.98362    0.79596    1.000
    Si1448   Si       0.04153    0.96509    0.79956    1.000
    N1449    N        0.02507    0.97638    0.76039    1.000
    Si1450   Si       0.10053    0.00595    0.76457    1.000
    Si1451   Si       0.11689    0.95769    0.79290    1.000
    Si1452   Si       0.13381    0.99475    0.85586    1.000
    N1453    N        0.14404    0.97028    0.82474    1.000
    N1454    N        0.12464    0.97061    0.75194    1.000
    N1455    N        0.10492    0.97495    0.88322    1.000
    N1456    N        0.03678    0.96795    0.90099    1.000
    N1457    N        0.08703    0.99076    0.94575    1.000
    Si1458   Si       0.07196    0.99303    0.90300    1.000
    Si1459   Si       0.00507    0.98547    0.92225    1.000
    N1460    N        0.99578    0.96260    0.95692    1.000
    Si1461   Si       0.02503    0.95895    0.98998    1.000
    Si1462   Si       0.23252    0.96322    0.92158    1.000
    N1463    N        0.16756    0.00419    0.88205    1.000
    N1464    N        0.15336    0.00234    0.95436    1.000
    N1465    N        0.21594    0.95330    0.88470    1.000
    N1466    N        0.20713    0.95600    0.95395    1.000
    Si1467   Si       0.20951    0.99586    0.87602    1.000
    Si1468   Si       0.12395    0.97116    0.95376    1.000
    N1469    N        0.23466    0.00766    0.91186    1.000
    N1470    N        0.12436    0.95444    0.99458    1.000
    N1471    N        0.27896    0.04418    0.07972    1.000
    N1472    N        0.35473    0.03849    0.08892    1.000
    Si1473   Si       0.32145    0.05151    0.00988    1.000
    Si1474   Si       0.31307    0.02101    0.09243    1.000
    N1475    N        0.28855    0.02354    0.00584    1.000
    Si1476   Si       0.24371    0.03113    0.00924    1.000
    N1477    N        0.36226    0.03724    0.01893    1.000
    Si1478   Si       0.38389    0.04031    0.05643    1.000
    N1479    N        0.47205    0.04375    0.09746    1.000
    N1480    N        0.46381    0.01600    0.03596    1.000
    Si1481   Si       0.44217    0.01836    0.11493    1.000
    Si1482   Si       0.48622    0.04956    0.05632    1.000
    N1483    N        0.40979    0.05047    0.11959    1.000
    N1484    N        0.24278    0.01410    0.12486    1.000
    N1485    N        0.28135    0.05264    0.17143    1.000
    Si1486   Si       0.27553    0.01383    0.15488    1.000
    N1487    N        0.47475    0.06440    0.16224    1.000
    N1488    N        0.36604    0.02061    0.16498    1.000
    Si1489   Si       0.37707    0.03700    0.20511    1.000
    Si1490   Si       0.36702    0.04700    0.13074    1.000
    N1491    N        0.47510    0.02077    0.21829    1.000
    N1492    N        0.41897    0.05253    0.20171    1.000
    Si1493   Si       0.45244    0.03537    0.18412    1.000
    N1494    N        0.33955    0.03681    0.29537    1.000
    N1495    N        0.27157    0.03141    0.30354    1.000
    Si1496   Si       0.31017    0.02415    0.32255    1.000
    N1497    N        0.31488    0.03908    0.36269    1.000
    Si1498   Si       0.34774    0.06722    0.36629    1.000
    Si1499   Si       0.47350    0.02209    0.32083    1.000
    N1500    N        0.44162    0.05260    0.32666    1.000
    Si1501   Si       0.37639    0.01881    0.27738    1.000
    N1502    N        0.39362    0.05775    0.27767    1.000
    Si1503   Si       0.42372    0.06183    0.36779    1.000
    N1504    N        0.48058    0.01968    0.27902    1.000
    Si1505   Si       0.48624    0.05148    0.24899    1.000
    Si1506   Si       0.24284    0.06032    0.44992    1.000
    Si1507   Si       0.30298    0.02213    0.40119    1.000
    N1508    N        0.34211    0.02768    0.42377    1.000
    N1509    N        0.27385    0.04396    0.42555    1.000
    Si1510   Si       0.34870    0.07231    0.43643    1.000
    N1511    N        0.38446    0.04491    0.37739    1.000
    Si1512   Si       0.46854    0.02440    0.42650    1.000
    N1513    N        0.45542    0.04354    0.38959    1.000
    N1514    N        0.45741    0.04829    0.46025    1.000
    Si1515   Si       0.41359    0.04280    0.46356    1.000
    Si1516   Si       0.37763    0.01073    0.40298    1.000
    N1517    N        0.25987    0.03705    0.59504    1.000
    N1518    N        0.33300    0.02042    0.59686    1.000
    Si1519   Si       0.35130    0.05065    0.50512    1.000
    Si1520   Si       0.34282    0.06146    0.58745    1.000
    N1521    N        0.34159    0.06311    0.54435    1.000
    Si1522   Si       0.47698    0.04543    0.54755    1.000
    N1523    N        0.39494    0.05126    0.50166    1.000
    N1524    N        0.48738    0.04907    0.58969    1.000
    Si1525   Si       0.27702    0.06336    0.62572    1.000
    Si1526   Si       0.27764    0.05942    0.69581    1.000
    N1527    N        0.28912    0.03469    0.72997    1.000
    N1528    N        0.28322    0.03534    0.65852    1.000
    N1529    N        0.35131    0.03480    0.70741    1.000
    N1530    N        0.42877    0.06612    0.63078    1.000
    N1531    N        0.43102    0.03792    0.69358    1.000
    Si1532   Si       0.42473    0.02938    0.65177    1.000
    Si1533   Si       0.32318    0.02442    0.81192    1.000
    N1534    N        0.34761    0.02178    0.77347    1.000
    Si1535   Si       0.26250    0.02020    0.76254    1.000
    N1536    N        0.28292    0.01262    0.79949    1.000
    Si1537   Si       0.33028    0.04420    0.74270    1.000
    N1538    N        0.32589    0.06698    0.82416    1.000
    N1539    N        0.42308    0.01847    0.75721    1.000
    Si1540   Si       0.45721    0.03628    0.77757    1.000
    N1541    N        0.39827    0.02444    0.82326    1.000
    N1542    N        0.45413    0.06377    0.81377    1.000
    Si1543   Si       0.41125    0.06519    0.82592    1.000
    N1544    N        0.46923    0.06482    0.74843    1.000
    N1545    N        0.26834    0.05712    0.86865    1.000
    Si1546   Si       0.27612    0.02169    0.89431    1.000
    N1547    N        0.30768    0.03455    0.91797    1.000
    Si1548   Si       0.34675    0.01605    0.92631    1.000
    Si1549   Si       0.29584    0.06998    0.94095    1.000
    N1550    N        0.25314    0.06409    0.94670    1.000
    N1551    N        0.37435    0.02104    0.95861    1.000
    Si1552   Si       0.45495    0.05962    0.94534    1.000
    N1553    N        0.47531    0.02112    0.95876    1.000
    N1554    N        0.43664    0.06346    0.98443    1.000
    Si1555   Si       0.37269    0.06458    0.96962    1.000
    Si1556   Si       0.39605    0.05931    0.89874    1.000
    N1557    N        0.42820    0.03662    0.91807    1.000
    N1558    N        0.36927    0.02497    0.89137    1.000
    Si1559   Si       0.45358    0.02345    0.99589    1.000
    N1560    N        0.31333    0.08722    0.03437    1.000
    Si1561   Si       0.33722    0.11477    0.01173    1.000
    Si1562   Si       0.27614    0.07920    0.05329    1.000
    N1563    N        0.24595    0.10254    0.07624    1.000
    N1564    N        0.24731    0.07214    0.02223    1.000
    Si1565   Si       0.44032    0.08908    0.02255    1.000
    Si1566   Si       0.41693    0.08762    0.09616    1.000
    N1567    N        0.45472    0.10908    0.10552    1.000
    N1568    N        0.48320    0.08567    0.03215    1.000
    N1569    N        0.38529    0.11832    0.10101    1.000
    N1570    N        0.41474    0.07082    0.05477    1.000
    N1571    N        0.37659    0.09759    0.99763    1.000
    Si1572   Si       0.31873    0.07362    0.18035    1.000
    Si1573   Si       0.35213    0.11862    0.12850    1.000
    N1574    N        0.30085    0.10897    0.19676    1.000
    Si1575   Si       0.35573    0.10847    0.23199    1.000
    N1576    N        0.33935    0.07878    0.14196    1.000
    N1577    N        0.26873    0.11433    0.13656    1.000
    Si1578   Si       0.25345    0.08543    0.16362    1.000
    Si1579   Si       0.26700    0.10853    0.22781    1.000
    N1580    N        0.35173    0.07118    0.20882    1.000
    N1581    N        0.45235    0.11503    0.19348    1.000
    Si1582   Si       0.48043    0.07860    0.12121    1.000
    Si1583   Si       0.43016    0.09079    0.22150    1.000
    N1584    N        0.39883    0.11579    0.23451    1.000
    N1585    N        0.26974    0.09117    0.27086    1.000
    N1586    N        0.33314    0.10355    0.26913    1.000
    Si1587   Si       0.35718    0.07635    0.29254    1.000
    N1588    N        0.24870    0.08351    0.34553    1.000
    N1589    N        0.36084    0.09119    0.33297    1.000
    Si1590   Si       0.29463    0.12536    0.28017    1.000
    Si1591   Si       0.25014    0.06959    0.30342    1.000
    Si1592   Si       0.26008    0.12654    0.34770    1.000
    Si1593   Si       0.48405    0.11723    0.27198    1.000
    N1594    N        0.41868    0.11465    0.29879    1.000
    Si1595   Si       0.43094    0.07517    0.29110    1.000
    N1596    N        0.45603    0.08157    0.25610    1.000
    Si1597   Si       0.39558    0.11865    0.33476    1.000
    N1598    N        0.41705    0.10503    0.36850    1.000
    N1599    N        0.33288    0.07817    0.47686    1.000
    N1600    N        0.25966    0.08659    0.48232    1.000
    N1601    N        0.33434    0.09082    0.40235    1.000
    Si1602   Si       0.29883    0.10535    0.47846    1.000
    Si1603   Si       0.31622    0.12918    0.40372    1.000
    Si1604   Si       0.42096    0.11281    0.45769    1.000
    N1605    N        0.39525    0.07795    0.44379    1.000
    N1606    N        0.44221    0.10066    0.49363    1.000
    Si1607   Si       0.47812    0.07911    0.48352    1.000
    N1608    N        0.44837    0.12107    0.42584    1.000
    N1609    N        0.31023    0.08387    0.60693    1.000
    Si1610   Si       0.24973    0.11017    0.51816    1.000
    N1611    N        0.24118    0.08724    0.55420    1.000
    Si1612   Si       0.24166    0.11579    0.59010    1.000
    N1613    N        0.37773    0.09367    0.59474    1.000
    Si1614   Si       0.41469    0.08421    0.52273    1.000
    Si1615   Si       0.45499    0.07594    0.59785    1.000
    N1616    N        0.47189    0.11200    0.61291    1.000
    N1617    N        0.39248    0.12060    0.53596    1.000
    N1618    N        0.43927    0.06847    0.55521    1.000
    N1619    N        0.24907    0.09752    0.62916    1.000
    N1620    N        0.30265    0.09426    0.69747    1.000
    Si1621   Si       0.33398    0.11143    0.67381    1.000
    Si1622   Si       0.29894    0.10998    0.73845    1.000
    N1623    N        0.36031    0.08310    0.65816    1.000
    Si1624   Si       0.39468    0.09283    0.63391    1.000
    N1625    N        0.47124    0.09194    0.68376    1.000
    Si1626   Si       0.44583    0.07479    0.71236    1.000
    N1627    N        0.41720    0.10335    0.72871    1.000
    Si1628   Si       0.45818    0.12121    0.65435    1.000
    N1629    N        0.41318    0.12936    0.65615    1.000
    Si1630   Si       0.34977    0.09315    0.79896    1.000
    Si1631   Si       0.29085    0.08712    0.84330    1.000
    N1632    N        0.32900    0.08629    0.76061    1.000
    N1633    N        0.25799    0.08436    0.81365    1.000
    N1634    N        0.25754    0.11340    0.74856    1.000
    Si1635   Si       0.48856    0.10144    0.76518    1.000
    N1636    N        0.39298    0.09121    0.79274    1.000
    N1637    N        0.40532    0.08309    0.86498    1.000
    N1638    N        0.46286    0.11410    0.86288    1.000
    Si1639   Si       0.41787    0.12097    0.76894    1.000
    Si1640   Si       0.41681    0.12288    0.86726    1.000
    Si1641   Si       0.48412    0.08708    0.83798    1.000
    Si1642   Si       0.24872    0.10780    0.93721    1.000
    N1643    N        0.29206    0.11158    0.92773    1.000
    N1644    N        0.32741    0.06886    0.97169    1.000
    N1645    N        0.47804    0.08828    0.92347    1.000
    N1646    N        0.38639    0.08590    0.93283    1.000
    Si1647   Si       0.46862    0.12628    0.90418    1.000
    N1648    N        0.32448    0.13721    0.10022    1.000
    N1649    N        0.26676    0.17359    0.03183    1.000
    N1650    N        0.24945    0.16351    0.10092    1.000
    Si1651   Si       0.30154    0.18660    0.01070    1.000
    Si1652   Si       0.36121    0.14579    0.07744    1.000
    N1653    N        0.36332    0.14300    0.03613    1.000
    Si1654   Si       0.39302    0.13650    0.00530    1.000
    Si1655   Si       0.45075    0.15415    0.10681    1.000
    Si1656   Si       0.44086    0.17376    0.03499    1.000
    N1657    N        0.43177    0.13231    0.02364    1.000
    N1658    N        0.43286    0.18216    0.07791    1.000
    Si1659   Si       0.28840    0.15305    0.12106    1.000
    N1660    N        0.29579    0.17134    0.16046    1.000
    Si1661   Si       0.32196    0.14735    0.18585    1.000
    N1662    N        0.34209    0.15346    0.22453    1.000
    N1663    N        0.35670    0.14656    0.16063    1.000
    Si1664   Si       0.45814    0.15383    0.17320    1.000
    N1665    N        0.48714    0.17328    0.12234    1.000
    N1666    N        0.42731    0.15989    0.14533    1.000
    Si1667   Si       0.38827    0.17730    0.16142    1.000
    N1668    N        0.29475    0.13757    0.31960    1.000
    Si1669   Si       0.31224    0.17022    0.34118    1.000
    N1670    N        0.27431    0.14806    0.24626    1.000
    N1671    N        0.49030    0.13107    0.31353    1.000
    N1672    N        0.45728    0.15511    0.25778    1.000
    N1673    N        0.39296    0.16286    0.34046    1.000
    Si1674   Si       0.41472    0.14077    0.26505    1.000
    N1675    N        0.38903    0.17482    0.27188    1.000
    N1676    N        0.33553    0.15655    0.37524    1.000
    Si1677   Si       0.25995    0.14726    0.42767    1.000
    N1678    N        0.29820    0.13260    0.44530    1.000
    N1679    N        0.27490    0.13535    0.38707    1.000
    Si1680   Si       0.43002    0.13856    0.39136    1.000
    Si1681   Si       0.48778    0.13118    0.40823    1.000
    N1682    N        0.46696    0.15634    0.37653    1.000
    N1683    N        0.39849    0.14800    0.47133    1.000
    Si1684   Si       0.37385    0.17622    0.37580    1.000
    N1685    N        0.39978    0.16430    0.40599    1.000
    Si1686   Si       0.39166    0.18223    0.44517    1.000
    Si1687   Si       0.31438    0.15801    0.53682    1.000
    N1688    N        0.27100    0.14795    0.59425    1.000
    N1689    N        0.34587    0.17105    0.50923    1.000
    N1690    N        0.33496    0.14023    0.57113    1.000
    Si1691   Si       0.31133    0.12723    0.60396    1.000
    N1692    N        0.29167    0.12789    0.51786    1.000
    N1693    N        0.40688    0.15811    0.59415    1.000
    N1694    N        0.47209    0.15948    0.55815    1.000
    Si1695   Si       0.38777    0.15472    0.51228    1.000
    Si1696   Si       0.43350    0.17913    0.56903    1.000
    Si1697   Si       0.37870    0.13064    0.57544    1.000
    N1698    N        0.35830    0.13351    0.70270    1.000
    N1699    N        0.24847    0.15447    0.68824    1.000
    Si1700   Si       0.33553    0.16523    0.72126    1.000
    N1701    N        0.32317    0.13973    0.64456    1.000
    Si1702   Si       0.32743    0.18225    0.65349    1.000
    N1703    N        0.25336    0.18515    0.74230    1.000
    Si1704   Si       0.40220    0.13015    0.69853    1.000
    Si1705   Si       0.40484    0.16776    0.63604    1.000
    N1706    N        0.47969    0.15437    0.67469    1.000
    N1707    N        0.41751    0.16965    0.71057    1.000
    Si1708   Si       0.45281    0.18457    0.69080    1.000
    N1709    N        0.37102    0.19033    0.65210    1.000
    Si1710   Si       0.27883    0.16356    0.84727    1.000
    N1711    N        0.26014    0.16024    0.80606    1.000
    Si1712   Si       0.28634    0.17595    0.77427    1.000
    N1713    N        0.34514    0.13513    0.81187    1.000
    N1714    N        0.31035    0.15011    0.75151    1.000
    N1715    N        0.29372    0.12669    0.86154    1.000
    N1716    N        0.23954    0.18290    0.86127    1.000
    N1717    N        0.39357    0.15973    0.77114    1.000
    N1718    N        0.41698    0.14413    0.82892    1.000
    Si1719   Si       0.37939    0.16086    0.81201    1.000
    Si1720   Si       0.45433    0.16983    0.83341    1.000
    N1721    N        0.45950    0.13370    0.77228    1.000
    Si1722   Si       0.47576    0.17584    0.76509    1.000
    N1723    N        0.31710    0.16753    0.92495    1.000
    Si1724   Si       0.29370    0.14666    0.95502    1.000
    N1725    N        0.25417    0.13474    0.97088    1.000
    Si1726   Si       0.31809    0.13361    0.89811    1.000
    N1727    N        0.36164    0.13052    0.89340    1.000
    N1728    N        0.31571    0.14761    0.99266    1.000
    N1729    N        0.48400    0.16489    0.90857    1.000
    N1730    N        0.42608    0.14241    0.90530    1.000
    N1731    N        0.39347    0.15348    0.96499    1.000
    Si1732   Si       0.39061    0.12912    0.92867    1.000
    Si1733   Si       0.44305    0.18453    0.90401    1.000
    N1734    N        0.33048    0.21589    0.02840    1.000
    N1735    N        0.29634    0.20668    0.09081    1.000
    Si1736   Si       0.33458    0.21561    0.06993    1.000
    Si1737   Si       0.25888    0.19229    0.06969    1.000
    Si1738   Si       0.34492    0.24343    0.99825    1.000
    N1739    N        0.36611    0.19002    0.08326    1.000
    Si1740   Si       0.40138    0.20803    0.09889    1.000
    N1741    N        0.41092    0.19955    0.01182    1.000
    Si1742   Si       0.48450    0.22503    0.03378    1.000
    Si1743   Si       0.40810    0.24084    0.02938    1.000
    Si1744   Si       0.48365    0.21781    0.12174    1.000
    N1745    N        0.48057    0.18484    0.01763    1.000
    Si1746   Si       0.36626    0.18748    0.23643    1.000
    Si1747   Si       0.27824    0.20842    0.17402    1.000
    N1748    N        0.26917    0.21661    0.21472    1.000
    N1749    N        0.30079    0.24336    0.15860    1.000
    Si1750   Si       0.43031    0.21467    0.21385    1.000
    N1751    N        0.46191    0.19007    0.19950    1.000
    N1752    N        0.44719    0.24091    0.12344    1.000
    N1753    N        0.39258    0.19222    0.20291    1.000
    N1754    N        0.38912    0.21352    0.13917    1.000
    Si1755   Si       0.31615    0.22264    0.28544    1.000
    N1756    N        0.28058    0.20000    0.35090    1.000
    N1757    N        0.27758    0.20165    0.28409    1.000
    N1758    N        0.33669    0.19681    0.31509    1.000
    Si1759   Si       0.25124    0.19629    0.31836    1.000
    N1760    N        0.34060    0.21929    0.25049    1.000
    Si1761   Si       0.25831    0.18743    0.24778    1.000
    N1762    N        0.40021    0.23342    0.31800    1.000
    N1763    N        0.43623    0.22206    0.25734    1.000
    Si1764   Si       0.38118    0.19385    0.31099    1.000
    N1765    N        0.47393    0.19547    0.31605    1.000
    Si1766   Si       0.46771    0.19519    0.27199    1.000
    Si1767   Si       0.46437    0.23092    0.33760    1.000
    N1768    N        0.44066    0.23613    0.37220    1.000
    Si1769   Si       0.34325    0.20847    0.48695    1.000
    N1770    N        0.25836    0.18932    0.43219    1.000
    Si1771   Si       0.28105    0.22258    0.44778    1.000
    N1772    N        0.29896    0.21573    0.48552    1.000
    N1773    N        0.35220    0.19808    0.44523    1.000
    Si1774   Si       0.27340    0.23267    0.37817    1.000
    N1775    N        0.30254    0.23414    0.41235    1.000
    Si1776   Si       0.34431    0.22877    0.41358    1.000
    N1777    N        0.41389    0.21542    0.46213    1.000
    N1778    N        0.47260    0.18875    0.49218    1.000
    N1779    N        0.36818    0.21908    0.37960    1.000
    Si1780   Si       0.28485    0.22692    0.52597    1.000
    N1781    N        0.29773    0.19538    0.55163    1.000
    N1782    N        0.24929    0.22153    0.60061    1.000
    Si1783   Si       0.27932    0.19058    0.59058    1.000
    N1784    N        0.24304    0.23380    0.53450    1.000
    N1785    N        0.36725    0.24203    0.50422    1.000
    N1786    N        0.40856    0.18907    0.53138    1.000
    N1787    N        0.45137    0.21566    0.58560    1.000
    Si1788   Si       0.39641    0.23394    0.53665    1.000
    Si1789   Si       0.43695    0.20847    0.49886    1.000
    N1790    N        0.30244    0.20284    0.62519    1.000
    Si1791   Si       0.27265    0.23340    0.63656    1.000
    N1792    N        0.25718    0.22579    0.67525    1.000
    N1793    N        0.35765    0.20284    0.73145    1.000
    Si1794   Si       0.33226    0.23426    0.71510    1.000
    Si1795   Si       0.26904    0.19299    0.70150    1.000
    N1796    N        0.31061    0.18674    0.69279    1.000
    Si1797   Si       0.44116    0.23002    0.62602    1.000
    Si1798   Si       0.38206    0.23078    0.66318    1.000
    Si1799   Si       0.39775    0.19046    0.74176    1.000
    N1800    N        0.43431    0.19667    0.65160    1.000
    N1801    N        0.47325    0.19937    0.72695    1.000
    N1802    N        0.40010    0.24817    0.62851    1.000
    N1803    N        0.31079    0.20895    0.79171    1.000
    Si1804   Si       0.33136    0.21522    0.82918    1.000
    N1805    N        0.30318    0.19902    0.85792    1.000
    N1806    N        0.37183    0.19709    0.83407    1.000
    Si1807   Si       0.43674    0.23603    0.79192    1.000
    N1808    N        0.45471    0.19583    0.79806    1.000
    N1809    N        0.40995    0.22939    0.75930    1.000
    Si1810   Si       0.40286    0.22449    0.85327    1.000
    N1811    N        0.43471    0.19636    0.86412    1.000
    N1812    N        0.28833    0.20047    0.97206    1.000
    N1813    N        0.31706    0.23457    0.91555    1.000
    Si1814   Si       0.32319    0.20381    0.94409    1.000
    Si1815   Si       0.28439    0.22516    0.88887    1.000
    N1816    N        0.25167    0.21684    0.91788    1.000
    Si1817   Si       0.24886    0.21686    0.96461    1.000
    N1818    N        0.35757    0.21563    0.96565    1.000
    N1819    N        0.42310    0.20573    0.93545    1.000
    Si1820   Si       0.39773    0.19648    0.96950    1.000
    Si1821   Si       0.43379    0.24369    0.91890    1.000
    N1822    N        0.26960    0.27119    0.10489    1.000
    N1823    N        0.29073    0.28502    0.04102    1.000
    N1824    N        0.33449    0.25652    0.09019    1.000
    Si1825   Si       0.25465    0.26821    0.06267    1.000
    Si1826   Si       0.32092    0.29727    0.07080    1.000
    Si1827   Si       0.27905    0.28382    0.99828    1.000
    Si1828   Si       0.30247    0.24362    0.11714    1.000
    N1829    N        0.45013    0.24970    0.03455    1.000
    Si1830   Si       0.37572    0.27428    0.09690    1.000
    Si1831   Si       0.44838    0.25782    0.07981    1.000
    N1832    N        0.38290    0.26477    0.00329    1.000
    N1833    N        0.45554    0.30029    0.08408    1.000
    N1834    N        0.40244    0.24663    0.07502    1.000
    N1835    N        0.29442    0.28674    0.21533    1.000
    Si1836   Si       0.30932    0.28253    0.17409    1.000
    Si1837   Si       0.25910    0.26046    0.21525    1.000
    Si1838   Si       0.25141    0.29314    0.13864    1.000
    N1839    N        0.34841    0.29578    0.18639    1.000
    N1840    N        0.23926    0.27254    0.17512    1.000
    N1841    N        0.47409    0.28083    0.23680    1.000
    Si1842   Si       0.43313    0.28457    0.22308    1.000
    N1843    N        0.39232    0.28385    0.13496    1.000
    Si1844   Si       0.41460    0.24950    0.15152    1.000
    N1845    N        0.42501    0.25312    0.19392    1.000
    N1846    N        0.30173    0.26337    0.29433    1.000
    Si1847   Si       0.26150    0.26652    0.31512    1.000
    N1848    N        0.27598    0.27002    0.35717    1.000
    Si1849   Si       0.29792    0.30619    0.36225    1.000
    N1850    N        0.45734    0.26646    0.31250    1.000
    N1851    N        0.41451    0.28701    0.26274    1.000
    Si1852   Si       0.42559    0.25250    0.28604    1.000
    Si1853   Si       0.39759    0.24490    0.35971    1.000
    N1854    N        0.38036    0.28495    0.36764    1.000
    N1855    N        0.24786    0.25242    0.45273    1.000
    Si1856   Si       0.36241    0.29243    0.40752    1.000
    N1857    N        0.32041    0.30281    0.40013    1.000
    N1858    N        0.36661    0.26114    0.43527    1.000
    N1859    N        0.48817    0.28474    0.41011    1.000
    Si1860   Si       0.39197    0.25402    0.46960    1.000
    Si1861   Si       0.47900    0.24428    0.39308    1.000
    Si1862   Si       0.45349    0.27700    0.49682    1.000
    N1863    N        0.41874    0.28816    0.47467    1.000
    N1864    N        0.48451    0.25469    0.47353    1.000
    N1865    N        0.25610    0.28854    0.57669    1.000
    Si1866   Si       0.34855    0.27326    0.53228    1.000
    N1867    N        0.30570    0.26553    0.53528    1.000
    Si1868   Si       0.27378    0.29699    0.53729    1.000
    N1869    N        0.24282    0.29619    0.50915    1.000
    N1870    N        0.37403    0.26024    0.56555    1.000
    Si1871   Si       0.38108    0.28014    0.60266    1.000
    N1872    N        0.43382    0.24587    0.52012    1.000
    Si1873   Si       0.45466    0.29804    0.61317    1.000
    N1874    N        0.47599    0.29888    0.57534    1.000
    N1875    N        0.35058    0.29963    0.62729    1.000
    N1876    N        0.24630    0.28989    0.71047    1.000
    Si1877   Si       0.32445    0.27947    0.65450    1.000
    Si1878   Si       0.28810    0.29100    0.71666    1.000
    N1879    N        0.28657    0.27327    0.63476    1.000
    N1880    N        0.29412    0.24892    0.73031    1.000
    N1881    N        0.35258    0.26994    0.73893    1.000
    N1882    N        0.34354    0.24659    0.67523    1.000
    N1883    N        0.40822    0.24933    0.69530    1.000
    N1884    N        0.47158    0.26868    0.71028    1.000
    Si1885   Si       0.39386    0.26031    0.73513    1.000
    Si1886   Si       0.43982    0.27449    0.68027    1.000
    N1887    N        0.46236    0.26566    0.64244    1.000
    Si1888   Si       0.46059    0.29038    0.74603    1.000
    Si1889   Si       0.30246    0.27951    0.83786    1.000
    N1890    N        0.30034    0.27739    0.79333    1.000
    N1891    N        0.34068    0.25618    0.83720    1.000
    N1892    N        0.27359    0.25813    0.86124    1.000
    Si1893   Si       0.33233    0.29508    0.76963    1.000
    N1894    N        0.24388    0.24229    0.77680    1.000
    Si1895   Si       0.28664    0.24193    0.77337    1.000
    Si1896   Si       0.37491    0.28204    0.82855    1.000
    N1897    N        0.46643    0.26519    0.78151    1.000
    N1898    N        0.40942    0.25379    0.82255    1.000
    N1899    N        0.41827    0.29478    0.74625    1.000
    Si1900   Si       0.32553    0.27121    0.93689    1.000
    N1901    N        0.31700    0.26935    0.97889    1.000
    N1902    N        0.24525    0.25692    0.98189    1.000
    N1903    N        0.30844    0.30488    0.91688    1.000
    N1904    N        0.47067    0.24024    0.90149    1.000
    Si1905   Si       0.39484    0.29364    0.89729    1.000
    N1906    N        0.40404    0.25189    0.88910    1.000
    N1907    N        0.43618    0.26890    0.95538    1.000
    Si1908   Si       0.39743    0.28629    0.96889    1.000
    N1909    N        0.36845    0.29162    0.93426    1.000
    Si1910   Si       0.45910    0.30184    0.97462    1.000
    N1911    N        0.30489    0.33690    0.08812    1.000
    N1912    N        0.36449    0.30894    0.07103    1.000
    Si1913   Si       0.24107    0.33222    0.02534    1.000
    Si1914   Si       0.37574    0.34954    0.05991    1.000
    N1915    N        0.41618    0.34940    0.04318    1.000
    Si1916   Si       0.44724    0.34204    0.07229    1.000
    Si1917   Si       0.42549    0.36157    0.00076    1.000
    N1918    N        0.48615    0.30861    0.00791    1.000
    Si1919   Si       0.29195    0.35114    0.12836    1.000
    N1920    N        0.32279    0.35437    0.20956    1.000
    N1921    N        0.28774    0.31347    0.15245    1.000
    Si1922   Si       0.32959    0.31196    0.22448    1.000
    N1923    N        0.37959    0.35384    0.15762    1.000
    N1924    N        0.41618    0.31832    0.19956    1.000
    Si1925   Si       0.38545    0.31150    0.16968    1.000
    N1926    N        0.46572    0.35315    0.23798    1.000
    Si1927   Si       0.42755    0.36097    0.21577    1.000
    Si1928   Si       0.25268    0.33762    0.28759    1.000
    N1929    N        0.29419    0.33933    0.27262    1.000
    N1930    N        0.32554    0.31622    0.32910    1.000
    Si1931   Si       0.31854    0.30465    0.28930    1.000
    N1932    N        0.35058    0.30952    0.26112    1.000
    Si1933   Si       0.36517    0.32120    0.34686    1.000
    N1934    N        0.23921    0.30356    0.30936    1.000
    N1935    N        0.36628    0.36028    0.36771    1.000
    Si1936   Si       0.43026    0.35051    0.33897    1.000
    Si1937   Si       0.39214    0.32122    0.27610    1.000
    N1938    N        0.39789    0.32769    0.31899    1.000
    N1939    N        0.45827    0.33991    0.30593    1.000
    N1940    N        0.45109    0.32142    0.36531    1.000
    N1941    N        0.40182    0.35861    0.25405    1.000
    Si1942   Si       0.47000    0.30477    0.32674    1.000
    N1943    N        0.27415    0.34023    0.37940    1.000
    Si1944   Si       0.29235    0.33213    0.41877    1.000
    N1945    N        0.26826    0.32430    0.45246    1.000
    Si1946   Si       0.47534    0.32564    0.40009    1.000
    N1947    N        0.45054    0.33743    0.43427    1.000
    Si1948   Si       0.41383    0.32434    0.45263    1.000
    N1949    N        0.38010    0.32815    0.42512    1.000
    N1950    N        0.40690    0.35788    0.48142    1.000
    Si1951   Si       0.32832    0.34468    0.51922    1.000
    N1952    N        0.29422    0.33478    0.54413    1.000
    N1953    N        0.35910    0.31317    0.51993    1.000
    Si1954   Si       0.26933    0.30861    0.61363    1.000
    N1955    N        0.29859    0.34057    0.62086    1.000
    N1956    N        0.36577    0.35946    0.59592    1.000
    Si1957   Si       0.46315    0.33271    0.54758    1.000
    Si1958   Si       0.40591    0.34743    0.58894    1.000
    N1959    N        0.47414    0.31380    0.50940    1.000
    N1960    N        0.42078    0.34359    0.54904    1.000
    Si1961   Si       0.39020    0.34536    0.51887    1.000
    N1962    N        0.41467    0.30711    0.60103    1.000
    Si1963   Si       0.34043    0.34135    0.62822    1.000
    Si1964   Si       0.33382    0.34230    0.70783    1.000
    N1965    N        0.24646    0.35760    0.73911    1.000
    N1966    N        0.35704    0.35715    0.66982    1.000
    N1967    N        0.31509    0.30940    0.68532    1.000
    N1968    N        0.30762    0.32141    0.74416    1.000
    N1969    N        0.37397    0.34133    0.72696    1.000
    N1970    N        0.47683    0.33169    0.63087    1.000
    Si1971   Si       0.39467    0.34357    0.68992    1.000
    N1972    N        0.41671    0.31127    0.66995    1.000
    N1973    N        0.29376    0.32033    0.85124    1.000
    Si1974   Si       0.30084    0.35976    0.83468    1.000
    Si1975   Si       0.28834    0.36146    0.75207    1.000
    N1976    N        0.36729    0.30741    0.79189    1.000
    Si1977   Si       0.39513    0.32723    0.76316    1.000
    N1978    N        0.46626    0.32157    0.82064    1.000
    Si1979   Si       0.44718    0.33556    0.85787    1.000
    Si1980   Si       0.46249    0.35161    0.78802    1.000
    N1981    N        0.48116    0.32762    0.75445    1.000
    N1982    N        0.37216    0.30857    0.86167    1.000
    Si1983   Si       0.37333    0.35085    0.86639    1.000
    N1984    N        0.42131    0.35988    0.77939    1.000
    Si1985   Si       0.34198    0.32957    0.93243    1.000
    N1986    N        0.26044    0.32309    0.98697    1.000
    Si1987   Si       0.27610    0.32397    0.89089    1.000
    Si1988   Si       0.25443    0.35471    0.95689    1.000
    N1989    N        0.33448    0.34697    0.97012    1.000
    N1990    N        0.27256    0.35829    0.91657    1.000
    N1991    N        0.36889    0.35752    0.91174    1.000
    N1992    N        0.42292    0.32269    0.98104    1.000
    N1993    N        0.43307    0.31262    0.89457    1.000
    N1994    N        0.47862    0.35330    0.88214    1.000
    N1995    N        0.48438    0.32056    0.94442    1.000
    Si1996   Si       0.45566    0.34020    0.91924    1.000
    N1997    N        0.30777    0.40602    0.08121    1.000
    Si1998   Si       0.34024    0.39943    0.10625    1.000
    Si1999   Si       0.25097    0.40436    0.01693    1.000
    N2000    N        0.26587    0.36709    0.03700    1.000
    Si2001   Si       0.30299    0.36966    0.05844    1.000
    N2002    N        0.34146    0.36703    0.03688    1.000
    N2003    N        0.37527    0.37578    0.09447    1.000
    N2004    N        0.46611    0.37660    0.00286    1.000
    Si2005   Si       0.47866    0.41538    0.01703    1.000
    Si2006   Si       0.45960    0.41342    0.09364    1.000
    N2007    N        0.44230    0.37142    0.10677    1.000
    N2008    N        0.48803    0.41448    0.05952    1.000
    N2009    N        0.25309    0.37254    0.12792    1.000
    N2010    N        0.31800    0.38647    0.14394    1.000
    Si2011   Si       0.34606    0.37451    0.17843    1.000
    N2012    N        0.36004    0.41352    0.19114    1.000
    N2013    N        0.29496    0.41648    0.20552    1.000
    Si2014   Si       0.23638    0.41282    0.12399    1.000
    Si2015   Si       0.30126    0.37150    0.24336    1.000
    N2016    N        0.45721    0.36526    0.17912    1.000
    N2017    N        0.40837    0.41721    0.14435    1.000
    N2018    N        0.41917    0.40420    0.21685    1.000
    Si2019   Si       0.47278    0.36800    0.13950    1.000
    N2020    N        0.48699    0.40883    0.12743    1.000
    Si2021   Si       0.40223    0.37623    0.12732    1.000
    Si2022   Si       0.26998    0.40642    0.30445    1.000
    N2023    N        0.26676    0.39882    0.26010    1.000
    N2024    N        0.33129    0.40101    0.25675    1.000
    N2025    N        0.25328    0.36864    0.31903    1.000
    N2026    N        0.30710    0.40949    0.32476    1.000
    Si2027   Si       0.33946    0.41668    0.29553    1.000
    N2028    N        0.42532    0.39017    0.35695    1.000
    N2029    N        0.37695    0.39714    0.30507    1.000
    N2030    N        0.44151    0.40742    0.28105    1.000
    Si2031   Si       0.38319    0.39498    0.34682    1.000
    Si2032   Si       0.46552    0.37226    0.27730    1.000
    Si2033   Si       0.40002    0.40005    0.26581    1.000
    Si2034   Si       0.29691    0.40335    0.43615    1.000
    N2035    N        0.25756    0.39105    0.44801    1.000
    N2036    N        0.31766    0.36499    0.42770    1.000
    Si2037   Si       0.35936    0.36402    0.41175    1.000
    Si2038   Si       0.26637    0.36121    0.47728    1.000
    N2039    N        0.29366    0.41891    0.39714    1.000
    N2040    N        0.44239    0.40671    0.44566    1.000
    N2041    N        0.37820    0.40135    0.42473    1.000
    Si2042   Si       0.40364    0.39829    0.46278    1.000
    Si2043   Si       0.47178    0.37480    0.44130    1.000
    N2044    N        0.31139    0.39480    0.57417    1.000
    Si2045   Si       0.28897    0.38301    0.60953    1.000
    Si2046   Si       0.35336    0.39259    0.56797    1.000
    Si2047   Si       0.27405    0.37601    0.54372    1.000
    N2048    N        0.35814    0.37379    0.52897    1.000
    N2049    N        0.25275    0.37103    0.58252    1.000
    N2050    N        0.26098    0.41914    0.54546    1.000
    N2051    N        0.24194    0.36403    0.51326    1.000
    Si2052   Si       0.33754    0.40571    0.49898    1.000
    N2053    N        0.30494    0.37402    0.49639    1.000
    Si2054   Si       0.40592    0.41377    0.61344    1.000
    N2055    N        0.42744    0.37527    0.61562    1.000
    N2056    N        0.25256    0.41805    0.68352    1.000
    N2057    N        0.31236    0.39814    0.64302    1.000
    N2058    N        0.31732    0.38067    0.72645    1.000
    Si2059   Si       0.34767    0.40165    0.66655    1.000
    Si2060   Si       0.33897    0.41758    0.73418    1.000
    N2061    N        0.38285    0.41792    0.74268    1.000
    Si2062   Si       0.44932    0.36235    0.64881    1.000
    N2063    N        0.42869    0.36920    0.68884    1.000
    N2064    N        0.47893    0.39182    0.66144    1.000
    N2065    N        0.44650    0.41307    0.73832    1.000
    Si2066   Si       0.46388    0.39009    0.70333    1.000
    N2067    N        0.38155    0.42111    0.64620    1.000
    N2068    N        0.26742    0.38131    0.85540    1.000
    N2069    N        0.29621    0.37482    0.79198    1.000
    N2070    N        0.33925    0.37204    0.84945    1.000
    Si2071   Si       0.33651    0.41425    0.86284    1.000
    Si2072   Si       0.29532    0.41775    0.79992    1.000
    Si2073   Si       0.41302    0.40029    0.76977    1.000
    Si2074   Si       0.41242    0.40618    0.84787    1.000
    N2075    N        0.41270    0.36196    0.85033    1.000
    Si2076   Si       0.48693    0.41350    0.75562    1.000
    N2077    N        0.48862    0.38750    0.79017    1.000
    Si2078   Si       0.27644    0.39693    0.89589    1.000
    N2079    N        0.25323    0.39645    0.97363    1.000
    N2080    N        0.33084    0.41592    0.97659    1.000
    Si2081   Si       0.35006    0.37865    0.99486    1.000
    N2082    N        0.31545    0.41786    0.90072    1.000
    N2083    N        0.24384    0.42071    0.91092    1.000
    Si2084   Si       0.39397    0.38107    0.94029    1.000
    N2085    N        0.39119    0.38241    0.98518    1.000
    Si2086   Si       0.45470    0.41331    0.91798    1.000
    N2087    N        0.43556    0.37637    0.93069    1.000
    Si2088   Si       0.28520    0.43947    0.06983    1.000
    N2089    N        0.28066    0.43552    0.02645    1.000
    N2090    N        0.35784    0.43890    0.10875    1.000
    N2091    N        0.24437    0.43444    0.08816    1.000
    N2092    N        0.30121    0.47495    0.08670    1.000
    N2093    N        0.33294    0.47782    0.00945    1.000
    N2094    N        0.44361    0.44377    0.01530    1.000
    N2095    N        0.42757    0.44156    0.08370    1.000
    Si2096   Si       0.43180    0.46957    0.05119    1.000
    Si2097   Si       0.39850    0.44685    0.11578    1.000
    Si2098   Si       0.33368    0.47344    0.12349    1.000
    Si2099   Si       0.33311    0.42542    0.22183    1.000
    N2100    N        0.33029    0.46905    0.22867    1.000
    N2101    N        0.31375    0.46282    0.15968    1.000
    Si2102   Si       0.25261    0.43191    0.20249    1.000
    N2103    N        0.25577    0.42848    0.15661    1.000
    N2104    N        0.26037    0.47433    0.21007    1.000
    Si2105   Si       0.29873    0.42269    0.16072    1.000
    Si2106   Si       0.47749    0.47388    0.19498    1.000
    N2107    N        0.42293    0.46377    0.19481    1.000
    N2108    N        0.47387    0.44114    0.22408    1.000
    Si2109   Si       0.40147    0.42575    0.18444    1.000
    Si2110   Si       0.43019    0.44747    0.23508    1.000
    N2111    N        0.25570    0.44881    0.30935    1.000
    N2112    N        0.34416    0.45922    0.30088    1.000
    Si2113   Si       0.31652    0.42893    0.36277    1.000
    Si2114   Si       0.35113    0.47146    0.34109    1.000
    N2115    N        0.35966    0.43099    0.36235    1.000
    N2116    N        0.30952    0.47464    0.35804    1.000
    Si2117   Si       0.35710    0.47493    0.26124    1.000
    N2118    N        0.43452    0.45604    0.33774    1.000
    Si2119   Si       0.45291    0.44435    0.29879    1.000
    N2120    N        0.44031    0.47471    0.26938    1.000
    N2121    N        0.38729    0.44279    0.25256    1.000
    Si2122   Si       0.33188    0.46879    0.45563    1.000
    N2123    N        0.34825    0.46585    0.41605    1.000
    N2124    N        0.31986    0.42797    0.46270    1.000
    Si2125   Si       0.44322    0.43022    0.37270    1.000
    Si2126   Si       0.46650    0.44158    0.43046    1.000
    N2127    N        0.41917    0.45432    0.40444    1.000
    N2128    N        0.38175    0.42472    0.49081    1.000
    Si2129   Si       0.37949    0.43828    0.40145    1.000
    N2130    N        0.48167    0.42909    0.39131    1.000
    N2131    N        0.33300    0.43566    0.53032    1.000
    Si2132   Si       0.29915    0.43445    0.55873    1.000
    N2133    N        0.29000    0.47547    0.57197    1.000
    N2134    N        0.26539    0.42265    0.61521    1.000
    Si2135   Si       0.36773    0.46000    0.51660    1.000
    Si2136   Si       0.39418    0.46381    0.58185    1.000
    Si2137   Si       0.47214    0.45859    0.60233    1.000
    N2138    N        0.43065    0.44947    0.60538    1.000
    N2139    N        0.38050    0.42342    0.57833    1.000
    N2140    N        0.37328    0.48206    0.61648    1.000
    N2141    N        0.34008    0.43504    0.69448    1.000
    Si2142   Si       0.28181    0.42642    0.65458    1.000
    N2143    N        0.29729    0.46871    0.65801    1.000
    Si2144   Si       0.32420    0.47714    0.69007    1.000
    N2145    N        0.41439    0.46446    0.68775    1.000
    Si2146   Si       0.41668    0.44325    0.72671    1.000
    Si2147   Si       0.38175    0.46467    0.65569    1.000
    N2148    N        0.47646    0.47932    0.64197    1.000
    N2149    N        0.31592    0.43683    0.76434    1.000
    N2150    N        0.31433    0.43511    0.83417    1.000
    N2151    N        0.25420    0.42725    0.81197    1.000
    Si2152   Si       0.30819    0.47917    0.84267    1.000
    N2153    N        0.41711    0.42245    0.80614    1.000
    Si2154   Si       0.47617    0.44245    0.85600    1.000
    N2155    N        0.37753    0.42878    0.85961    1.000
    Si2156   Si       0.42807    0.46500    0.80308    1.000
    N2157    N        0.46833    0.46214    0.81812    1.000
    N2158    N        0.42169    0.47141    0.75940    1.000
    Si2159   Si       0.38116    0.47229    0.86191    1.000
    Si2160   Si       0.24830    0.43343    0.95164    1.000
    Si2161   Si       0.33695    0.43188    0.93435    1.000
    N2162    N        0.28274    0.45868    0.95669    1.000
    N2163    N        0.34998    0.47301    0.93506    1.000
    Si2164   Si       0.30658    0.44770    0.99475    1.000
    N2165    N        0.48498    0.47250    0.88626    1.000
    N2166    N        0.44197    0.44899    0.93911    1.000
    N2167    N        0.44258    0.42234    0.87676    1.000
    N2168    N        0.40149    0.48175    0.97207    1.000
    Si2169   Si       0.44358    0.46816    0.97928    1.000
    Si2170   Si       0.39338    0.46156    0.93407    1.000
    N2171    N        0.38029    0.42054    0.93090    1.000
    Si2172   Si       0.30754    0.51806    0.08787    1.000
    Si2173   Si       0.31911    0.52090    0.00826    1.000
    N2174    N        0.33541    0.51632    0.12076    1.000
    N2175    N        0.27005    0.53932    0.09997    1.000
    N2176    N        0.31594    0.53783    0.04832    1.000
    N2177    N        0.39537    0.49185    0.04008    1.000
    N2178    N        0.45036    0.50627    0.06556    1.000
    Si2179   Si       0.37285    0.49119    0.00336    1.000
    Si2180   Si       0.41462    0.53430    0.05063    1.000
    Si2181   Si       0.38258    0.52690    0.12260    1.000
    Si2182   Si       0.45310    0.53724    0.09958    1.000
    N2183    N        0.30901    0.52487    0.18762    1.000
    Si2184   Si       0.30347    0.48486    0.19816    1.000
    N2185    N        0.25872    0.53719    0.24364    1.000
    N2186    N        0.42251    0.52805    0.19386    1.000
    N2187    N        0.46889    0.49076    0.15498    1.000
    N2188    N        0.42549    0.53408    0.13129    1.000
    N2189    N        0.39081    0.48424    0.13617    1.000
    N2190    N        0.48593    0.51101    0.21789    1.000
    Si2191   Si       0.42575    0.49872    0.16211    1.000
    N2192    N        0.27118    0.52014    0.31608    1.000
    Si2193   Si       0.27159    0.48044    0.33462    1.000
    N2194    N        0.36138    0.51925    0.26742    1.000
    Si2195   Si       0.45517    0.51271    0.28264    1.000
    Si2196   Si       0.42215    0.49536    0.35021    1.000
    N2197    N        0.43356    0.52300    0.31868    1.000
    N2198    N        0.37966    0.50018    0.35214    1.000
    Si2199   Si       0.36412    0.53948    0.36143    1.000
    Si2200   Si       0.47438    0.53992    0.37021    1.000
    N2201    N        0.29851    0.49452    0.44112    1.000
    N2202    N        0.34430    0.52991    0.39859    1.000
    Si2203   Si       0.31578    0.49328    0.39954    1.000
    N2204    N        0.28150    0.52612    0.38914    1.000
    Si2205   Si       0.25967    0.50356    0.46144    1.000
    N2206    N        0.35340    0.48824    0.48750    1.000
    Si2207   Si       0.24102    0.51289    0.39635    1.000
    N2208    N        0.40414    0.52819    0.44274    1.000
    Si2209   Si       0.42656    0.49417    0.42196    1.000
    N2210    N        0.44230    0.51312    0.38386    1.000
    N2211    N        0.46288    0.48421    0.44205    1.000
    Si2212   Si       0.27624    0.49983    0.53787    1.000
    N2213    N        0.31206    0.52674    0.52838    1.000
    N2214    N        0.25782    0.48633    0.50094    1.000
    Si2215   Si       0.28628    0.48520    0.61623    1.000
    N2216    N        0.31070    0.52243    0.61952    1.000
    Si2217   Si       0.34320    0.52999    0.49642    1.000
    N2218    N        0.48186    0.48305    0.56661    1.000
    Si2219   Si       0.41157    0.52264    0.53691    1.000
    Si2220   Si       0.47982    0.52716    0.57296    1.000
    N2221    N        0.44070    0.52390    0.50462    1.000
    Si2222   Si       0.48560    0.52678    0.50210    1.000
    N2223    N        0.39542    0.48396    0.54309    1.000
    N2224    N        0.24512    0.49825    0.62141    1.000
    Si2225   Si       0.24643    0.50731    0.66481    1.000
    Si2226   Si       0.24910    0.50859    0.73791    1.000
    Si2227   Si       0.35331    0.51826    0.63082    1.000
    N2228    N        0.31658    0.49731    0.72685    1.000
    N2229    N        0.35791    0.50198    0.67253    1.000
    N2230    N        0.24176    0.48352    0.70092    1.000
    Si2231   Si       0.31686    0.53956    0.73663    1.000
    Si2232   Si       0.44739    0.49028    0.67249    1.000
    N2233    N        0.46676    0.49748    0.71009    1.000
    N2234    N        0.40573    0.53155    0.73355    1.000
    Si2235   Si       0.44115    0.50616    0.74384    1.000
    Si2236   Si       0.38932    0.52549    0.69387    1.000
    N2237    N        0.42144    0.52059    0.66080    1.000
    N2238    N        0.31412    0.49942    0.80451    1.000
    N2239    N        0.34190    0.49145    0.86847    1.000
    N2240    N        0.27033    0.48543    0.85975    1.000
    N2241    N        0.26229    0.48015    0.76847    1.000
    Si2242   Si       0.30589    0.47920    0.76575    1.000
    N2243    N        0.46708    0.52033    0.77720    1.000
    N2244    N        0.40259    0.49107    0.82743    1.000
    N2245    N        0.23935    0.49772    0.92463    1.000
    Si2246   Si       0.27797    0.50186    0.94548    1.000
    Si2247   Si       0.34061    0.50896    0.91039    1.000
    N2248    N        0.30250    0.52448    0.91941    1.000
    N2249    N        0.28171    0.51497    0.98688    1.000
    N2250    N        0.35640    0.53449    0.99381    1.000
    Si2251   Si       0.41207    0.52898    0.90192    1.000
    N2252    N        0.40399    0.48289    0.89704    1.000
    N2253    N        0.47508    0.49694    0.98729    1.000
    Si2254   Si       0.44950    0.47997    0.90871    1.000
    N2255    N        0.44751    0.52082    0.92221    1.000
    N2256    N        0.37169    0.53943    0.91413    1.000
    Si2257   Si       0.35198    0.56661    0.05763    1.000
    Si2258   Si       0.28877    0.57784    0.04297    1.000
    N2259    N        0.24325    0.55778    0.04035    1.000
    N2260    N        0.28908    0.57568    0.99926    1.000
    Si2261   Si       0.25351    0.54761    0.99672    1.000
    N2262    N        0.32372    0.59821    0.06539    1.000
    N2263    N        0.37708    0.58643    0.02898    1.000
    N2264    N        0.44200    0.56855    0.07295    1.000
    N2265    N        0.42408    0.54443    0.00878    1.000
    N2266    N        0.38117    0.54317    0.07921    1.000
    Si2267   Si       0.46480    0.53713    0.99520    1.000
    N2268    N        0.24727    0.55838    0.16621    1.000
    Si2269   Si       0.27142    0.56992    0.13277    1.000
    Si2270   Si       0.32885    0.54404    0.15688    1.000
    Si2271   Si       0.24635    0.56600    0.21066    1.000
    N2272    N        0.31166    0.58024    0.14313    1.000
    N2273    N        0.47120    0.58241    0.21213    1.000
    Si2274   Si       0.45518    0.54346    0.21854    1.000
    N2275    N        0.37100    0.55328    0.15661    1.000
    N2276    N        0.38834    0.57576    0.22323    1.000
    Si2277   Si       0.40243    0.56355    0.18300    1.000
    N2278    N        0.26731    0.58047    0.35204    1.000
    N2279    N        0.30632    0.56961    0.27940    1.000
    Si2280   Si       0.34366    0.55269    0.29294    1.000
    Si2281   Si       0.26753    0.54829    0.28404    1.000
    Si2282   Si       0.28952    0.54326    0.34912    1.000
    N2283    N        0.33205    0.54784    0.33488    1.000
    N2284    N        0.38525    0.57029    0.29294    1.000
    N2285    N        0.46328    0.57438    0.34728    1.000
    Si2286   Si       0.42324    0.56815    0.32541    1.000
    N2287    N        0.39691    0.56903    0.36092    1.000
    Si2288   Si       0.39449    0.54623    0.25658    1.000
    N2289    N        0.43684    0.54007    0.25683    1.000
    N2290    N        0.33556    0.54912    0.45850    1.000
    Si2291   Si       0.30251    0.54917    0.42803    1.000
    N2292    N        0.26722    0.54919    0.45400    1.000
    Si2293   Si       0.24913    0.57806    0.47993    1.000
    N2294    N        0.31024    0.58739    0.40596    1.000
    N2295    N        0.48707    0.56796    0.40381    1.000
    Si2296   Si       0.41717    0.55031    0.47943    1.000
    N2297    N        0.38065    0.58966    0.42636    1.000
    N2298    N        0.43455    0.59027    0.48514    1.000
    Si2299   Si       0.36887    0.54833    0.43148    1.000
    Si2300   Si       0.47686    0.59596    0.48031    1.000
    Si2301   Si       0.30251    0.56898    0.53647    1.000
    N2302    N        0.31694    0.57665    0.57599    1.000
    Si2303   Si       0.29258    0.56095    0.60925    1.000
    N2304    N        0.25874    0.57159    0.52318    1.000
    N2305    N        0.25255    0.56898    0.59268    1.000
    Si2306   Si       0.35766    0.58861    0.59185    1.000
    N2307    N        0.32651    0.59128    0.51025    1.000
    Si2308   Si       0.37076    0.59215    0.52170    1.000
    Si2309   Si       0.42545    0.58018    0.58122    1.000
    N2310    N        0.38092    0.55011    0.51020    1.000
    N2311    N        0.38808    0.59143    0.56143    1.000
    N2312    N        0.37264    0.55498    0.61508    1.000
    N2313    N        0.42968    0.58960    0.62549    1.000
    N2314    N        0.43737    0.53976    0.56986    1.000
    N2315    N        0.26335    0.54563    0.67706    1.000
    Si2316   Si       0.28868    0.57927    0.67948    1.000
    N2317    N        0.32041    0.57284    0.70802    1.000
    N2318    N        0.30508    0.58854    0.64172    1.000
    Si2319   Si       0.35979    0.59320    0.70285    1.000
    Si2320   Si       0.40560    0.55745    0.64315    1.000
    N2321    N        0.38405    0.56611    0.68014    1.000
    Si2322   Si       0.26502    0.57133    0.77915    1.000
    N2323    N        0.29967    0.57459    0.80577    1.000
    N2324    N        0.35764    0.55102    0.83480    1.000
    Si2325   Si       0.34369    0.58775    0.85365    1.000
    N2326    N        0.34734    0.54702    0.76634    1.000
    Si2327   Si       0.32837    0.54170    0.80488    1.000
    N2328    N        0.27530    0.54082    0.74968    1.000
    N2329    N        0.23904    0.59425    0.86130    1.000
    Si2330   Si       0.38937    0.56079    0.75911    1.000
    N2331    N        0.47276    0.57693    0.82544    1.000
    N2332    N        0.41175    0.55820    0.79711    1.000
    Si2333   Si       0.45579    0.56046    0.78988    1.000
    Si2334   Si       0.44988    0.58199    0.86273    1.000
    N2335    N        0.42112    0.54913    0.86469    1.000
    N2336    N        0.45927    0.58831    0.75618    1.000
    Si2337   Si       0.39636    0.53421    0.83035    1.000
    N2338    N        0.30523    0.58675    0.87525    1.000
    N2339    N        0.32440    0.58689    0.93869    1.000
    Si2340   Si       0.29566    0.56647    0.91400    1.000
    N2341    N        0.25529    0.57192    0.92873    1.000
    Si2342   Si       0.36583    0.58145    0.92387    1.000
    N2343    N        0.47940    0.57655    0.89477    1.000
    N2344    N        0.39077    0.59028    0.95764    1.000
    N2345    N        0.47922    0.56527    0.96455    1.000
    Si2346   Si       0.48351    0.54564    0.92512    1.000
    Si2347   Si       0.38745    0.56522    0.99330    1.000
    Si2348   Si       0.32480    0.63723    0.07994    1.000
    N2349    N        0.26563    0.61331    0.05185    1.000
    N2350    N        0.35201    0.63434    0.11391    1.000
    N2351    N        0.24776    0.60111    0.11493    1.000
    Si2352   Si       0.36873    0.62838    0.02478    1.000
    N2353    N        0.41032    0.63587    0.06065    1.000
    N2354    N        0.47278    0.62918    0.08613    1.000
    N2355    N        0.45444    0.61853    0.01866    1.000
    Si2356   Si       0.44486    0.60909    0.06150    1.000
    Si2357   Si       0.38651    0.65325    0.09382    1.000
    Si2358   Si       0.46081    0.65117    0.12318    1.000
    Si2359   Si       0.42891    0.65619    0.02124    1.000
    N2360    N        0.30193    0.64363    0.15689    1.000
    Si2361   Si       0.27446    0.63809    0.19287    1.000
    Si2362   Si       0.33493    0.61841    0.14964    1.000
    N2363    N        0.33746    0.61721    0.24656    1.000
    N2364    N        0.27698    0.60116    0.21761    1.000
    N2365    N        0.36699    0.62693    0.18067    1.000
    Si2366   Si       0.37451    0.61632    0.22320    1.000
    N2367    N        0.41642    0.64764    0.12420    1.000
    Si2368   Si       0.46253    0.61971    0.18926    1.000
    Si2369   Si       0.40644    0.63489    0.16436    1.000
    N2370    N        0.48458    0.62970    0.15327    1.000
    N2371    N        0.42747    0.59777    0.17086    1.000
    N2372    N        0.29085    0.64001    0.28075    1.000
    N2373    N        0.30779    0.63861    0.35349    1.000
    Si2374   Si       0.29686    0.60415    0.25578    1.000
    Si2375   Si       0.35097    0.65185    0.35063    1.000
    N2376    N        0.35972    0.63783    0.30883    1.000
    Si2377   Si       0.33357    0.64932    0.27467    1.000
    N2378    N        0.24486    0.64166    0.33444    1.000
    Si2379   Si       0.28416    0.65594    0.32088    1.000
    N2380    N        0.43051    0.60796    0.30664    1.000
    Si2381   Si       0.39173    0.61513    0.29030    1.000
    Si2382   Si       0.47196    0.60957    0.31822    1.000
    N2383    N        0.39566    0.63934    0.25461    1.000
    Si2384   Si       0.25033    0.64633    0.44508    1.000
    Si2385   Si       0.31085    0.62314    0.48442    1.000
    Si2386   Si       0.28379    0.60801    0.37904    1.000
    N2387    N        0.27138    0.61679    0.47180    1.000
    N2388    N        0.33035    0.63848    0.44857    1.000
    N2389    N        0.25620    0.63208    0.40190    1.000
    Si2390   Si       0.34348    0.61367    0.41774    1.000
    Si2391   Si       0.39940    0.60186    0.38939    1.000
    Si2392   Si       0.47040    0.60144    0.38302    1.000
    N2393    N        0.36848    0.62912    0.38231    1.000
    Si2394   Si       0.42168    0.63144    0.49637    1.000
    N2395    N        0.43545    0.62380    0.39578    1.000
    N2396    N        0.35258    0.62811    0.61024    1.000
    N2397    N        0.25102    0.63466    0.61051    1.000
    Si2398   Si       0.47452    0.63357    0.54865    1.000
    N2399    N        0.46318    0.60312    0.57728    1.000
    N2400    N        0.43687    0.64940    0.53275    1.000
    Si2401   Si       0.46554    0.61350    0.61940    1.000
    N2402    N        0.37912    0.62786    0.50125    1.000
    N2403    N        0.35466    0.62900    0.67968    1.000
    Si2404   Si       0.32775    0.62571    0.64566    1.000
    N2405    N        0.26750    0.61584    0.68799    1.000
    Si2406   Si       0.26080    0.64233    0.65255    1.000
    Si2407   Si       0.24558    0.61595    0.72659    1.000
    N2408    N        0.48255    0.63051    0.68980    1.000
    N2409    N        0.44918    0.65475    0.73512    1.000
    Si2410   Si       0.47981    0.61911    0.73184    1.000
    N2411    N        0.38057    0.60008    0.74152    1.000
    N2412    N        0.46376    0.65621    0.61806    1.000
    Si2413   Si       0.31080    0.62108    0.79515    1.000
    N2414    N        0.28302    0.63903    0.82206    1.000
    N2415    N        0.26974    0.61239    0.76334    1.000
    N2416    N        0.34670    0.61868    0.82319    1.000
    Si2417   Si       0.27697    0.61615    0.85736    1.000
    N2418    N        0.33384    0.65319    0.77293    1.000
    N2419    N        0.39803    0.65091    0.78597    1.000
    Si2420   Si       0.37316    0.64092    0.75175    1.000
    Si2421   Si       0.30515    0.60641    0.97172    1.000
    N2422    N        0.27012    0.62903    0.96161    1.000
    N2423    N        0.26514    0.64964    0.88397    1.000
    N2424    N        0.33378    0.63146    0.99505    1.000
    N2425    N        0.39704    0.64538    0.99527    1.000
    N2426    N        0.45031    0.62674    0.94800    1.000
    Si2427   Si       0.39493    0.63521    0.88493    1.000
    Si2428   Si       0.45746    0.64448    0.90910    1.000
    N2429    N        0.36917    0.60161    0.88542    1.000
    Si2430   Si       0.47411    0.60486    0.97958    1.000
    N2431    N        0.43462    0.62123    0.87840    1.000
    Si2432   Si       0.40845    0.63110    0.95736    1.000
    N2433    N        0.28315    0.67200    0.01583    1.000
    N2434    N        0.29070    0.66262    0.08750    1.000
    N2435    N        0.35230    0.70729    0.00663    1.000
    Si2436   Si       0.26492    0.65569    0.05267    1.000
    Si2437   Si       0.32565    0.67400    0.99998    1.000
    N2438    N        0.35168    0.65984    0.05169    1.000
    Si2439   Si       0.36945    0.70246    0.04891    1.000
    N2440    N        0.38712    0.69804    0.09184    1.000
    N2441    N        0.41246    0.69998    0.03040    1.000
    N2442    N        0.46331    0.67865    0.99962    1.000
    Si2443   Si       0.43936    0.71518    0.99957    1.000
    Si2444   Si       0.24247    0.69477    0.18316    1.000
    Si2445   Si       0.28935    0.67664    0.12779    1.000
    N2446    N        0.25124    0.70148    0.14057    1.000
    N2447    N        0.27898    0.68017    0.20628    1.000
    N2448    N        0.31788    0.71083    0.13155    1.000
    N2449    N        0.45988    0.69456    0.11798    1.000
    Si2450   Si       0.43701    0.69703    0.20716    1.000
    N2451    N        0.47209    0.69471    0.23857    1.000
    N2452    N        0.39784    0.70616    0.22915    1.000
    Si2453   Si       0.41598    0.71077    0.12305    1.000
    N2454    N        0.43333    0.65757    0.18923    1.000
    N2455    N        0.34623    0.68952    0.26977    1.000
    N2456    N        0.29822    0.69737    0.31797    1.000
    N2457    N        0.37215    0.69046    0.35102    1.000
    N2458    N        0.41920    0.69432    0.29250    1.000
    N2459    N        0.44202    0.68107    0.35746    1.000
    Si2460   Si       0.45989    0.69942    0.28103    1.000
    Si2461   Si       0.41234    0.70238    0.33600    1.000
    Si2462   Si       0.38811    0.68148    0.26483    1.000
    Si2463   Si       0.48167    0.67174    0.34564    1.000
    N2464    N        0.48439    0.67124    0.30283    1.000
    N2465    N        0.25773    0.69940    0.37445    1.000
    N2466    N        0.28020    0.68030    0.44129    1.000
    N2467    N        0.33118    0.69785    0.40892    1.000
    Si2468   Si       0.32713    0.68619    0.45212    1.000
    Si2469   Si       0.28679    0.71167    0.40708    1.000
    N2470    N        0.40363    0.69162    0.41291    1.000
    N2471    N        0.43176    0.66216    0.46893    1.000
    Si2472   Si       0.43442    0.66680    0.39772    1.000
    Si2473   Si       0.47471    0.66337    0.45911    1.000
    N2474    N        0.46950    0.68200    0.42088    1.000
    N2475    N        0.36762    0.68930    0.47236    1.000
    Si2476   Si       0.40639    0.69536    0.45591    1.000
    Si2477   Si       0.36977    0.70672    0.39235    1.000
    Si2478   Si       0.29015    0.68765    0.52797    1.000
    N2479    N        0.33783    0.69805    0.60095    1.000
    N2480    N        0.28009    0.68244    0.56883    1.000
    N2481    N        0.25476    0.69321    0.50392    1.000
    Si2482   Si       0.24200    0.67174    0.58876    1.000
    Si2483   Si       0.35629    0.66461    0.50593    1.000
    N2484    N        0.31453    0.65911    0.50701    1.000
    Si2485   Si       0.36212    0.66518    0.58670    1.000
    N2486    N        0.36965    0.67270    0.54490    1.000
    Si2487   Si       0.41249    0.67917    0.55253    1.000
    N2488    N        0.40533    0.67489    0.59414    1.000
    Si2489   Si       0.31989    0.69617    0.64138    1.000
    N2490    N        0.35866    0.69567    0.66210    1.000
    N2491    N        0.30034    0.66047    0.64838    1.000
    N2492    N        0.37956    0.67443    0.72478    1.000
    Si2493   Si       0.37866    0.66356    0.68302    1.000
    Si2494   Si       0.45874    0.66579    0.69216    1.000
    N2495    N        0.41998    0.66615    0.67082    1.000
    Si2496   Si       0.42781    0.67984    0.62960    1.000
    N2497    N        0.47988    0.70233    0.68417    1.000
    Si2498   Si       0.27146    0.67902    0.81046    1.000
    N2499    N        0.26926    0.70411    0.84480    1.000
    Si2500   Si       0.32995    0.69706    0.77686    1.000
    N2501    N        0.28754    0.70509    0.77707    1.000
    N2502    N        0.35865    0.70053    0.81195    1.000
    Si2503   Si       0.36796    0.65663    0.81678    1.000
    N2504    N        0.46130    0.68387    0.79221    1.000
    Si2505   Si       0.42759    0.67588    0.76783    1.000
    N2506    N        0.38082    0.66356    0.85692    1.000
    N2507    N        0.48550    0.70004    0.85139    1.000
    N2508    N        0.41116    0.71692    0.76241    1.000
    Si2509   Si       0.35857    0.70185    0.86522    1.000
    N2510    N        0.30929    0.68574    0.95943    1.000
    Si2511   Si       0.27078    0.67086    0.97241    1.000
    Si2512   Si       0.28341    0.68999    0.88244    1.000
    N2513    N        0.32631    0.68995    0.89208    1.000
    N2514    N        0.39875    0.65698    0.92240    1.000
    N2515    N        0.45486    0.68878    0.91185    1.000
    Si2516   Si       0.41267    0.69703    0.92271    1.000
    Si2517   Si       0.48251    0.71624    0.89341    1.000
    N2518    N        0.28011    0.74771    0.08974    1.000
    N2519    N        0.34369    0.73538    0.06270    1.000
    Si2520   Si       0.32172    0.74122    0.09835    1.000
    Si2521   Si       0.34094    0.76486    0.03051    1.000
    Si2522   Si       0.26391    0.76843    0.05369    1.000
    Si2523   Si       0.47299    0.73473    0.11119    1.000
    N2524    N        0.46420    0.74926    0.00689    1.000
    N2525    N        0.48689    0.74318    0.06978    1.000
    N2526    N        0.43186    0.75189    0.11810    1.000
    N2527    N        0.37150    0.76952    0.99679    1.000
    Si2528   Si       0.46918    0.77518    0.04596    1.000
    Si2529   Si       0.25739    0.73968    0.12513    1.000
    N2530    N        0.34444    0.76628    0.12602    1.000
    N2531    N        0.33111    0.73051    0.19707    1.000
    Si2532   Si       0.34648    0.73335    0.15577    1.000
    N2533    N        0.24913    0.73430    0.20328    1.000
    Si2534   Si       0.29177    0.72338    0.21647    1.000
    Si2535   Si       0.41810    0.75830    0.16765    1.000
    N2536    N        0.44802    0.73358    0.18601    1.000
    Si2537   Si       0.36669    0.73532    0.22167    1.000
    Si2538   Si       0.47805    0.76573    0.17815    1.000
    N2539    N        0.39225    0.77153    0.20549    1.000
    N2540    N        0.38980    0.72292    0.15792    1.000
    N2541    N        0.33881    0.75106    0.31622    1.000
    Si2542   Si       0.33664    0.76054    0.35767    1.000
    N2543    N        0.25506    0.75326    0.32180    1.000
    Si2544   Si       0.26069    0.75911    0.27730    1.000
    N2545    N        0.28809    0.73041    0.25827    1.000
    Si2546   Si       0.27745    0.72437    0.34440    1.000
    N2547    N        0.34957    0.75510    0.25644    1.000
    Si2548   Si       0.32085    0.72199    0.28729    1.000
    Si2549   Si       0.36866    0.77262    0.29055    1.000
    N2550    N        0.41933    0.74565    0.34210    1.000
    N2551    N        0.46976    0.73880    0.29889    1.000
    Si2552   Si       0.43968    0.76601    0.30941    1.000
    N2553    N        0.30001    0.74625    0.37486    1.000
    N2554    N        0.25096    0.75728    0.48719    1.000
    N2555    N        0.25556    0.73533    0.42790    1.000
    N2556    N        0.31116    0.72581    0.47089    1.000
    Si2557   Si       0.26770    0.71621    0.46775    1.000
    Si2558   Si       0.45311    0.76077    0.44124    1.000
    N2559    N        0.42673    0.73203    0.46426    1.000
    Si2560   Si       0.40624    0.77144    0.37594    1.000
    N2561    N        0.36969    0.74950    0.38473    1.000
    N2562    N        0.48828    0.75157    0.41530    1.000
    N2563    N        0.30777    0.76186    0.58861    1.000
    Si2564   Si       0.32586    0.74918    0.50461    1.000
    N2565    N        0.31688    0.72170    0.53708    1.000
    Si2566   Si       0.30671    0.71889    0.57979    1.000
    Si2567   Si       0.42603    0.76165    0.55772    1.000
    N2568    N        0.45734    0.76067    0.58693    1.000
    Si2569   Si       0.40845    0.74467    0.50133    1.000
    N2570    N        0.41691    0.71910    0.53694    1.000
    N2571    N        0.36898    0.75950    0.50311    1.000
    N2572    N        0.29661    0.73266    0.64355    1.000
    Si2573   Si       0.25208    0.74259    0.63535    1.000
    Si2574   Si       0.31925    0.76614    0.63026    1.000
    N2575    N        0.27218    0.76840    0.74090    1.000
    N2576    N        0.36119    0.76176    0.63271    1.000
    N2577    N        0.47455    0.76460    0.65751    1.000
    Si2578   Si       0.38110    0.71935    0.72986    1.000
    N2579    N        0.39221    0.74453    0.69692    1.000
    Si2580   Si       0.44269    0.76110    0.62858    1.000
    Si2581   Si       0.38383    0.73186    0.65579    1.000
    N2582    N        0.42136    0.72431    0.63432    1.000
    Si2583   Si       0.25740    0.73373    0.76631    1.000
    N2584    N        0.34655    0.74547    0.85796    1.000
    N2585    N        0.26555    0.76771    0.85643    1.000
    Si2586   Si       0.31665    0.76537    0.75112    1.000
    N2587    N        0.31306    0.77343    0.79540    1.000
    N2588    N        0.24162    0.75526    0.80227    1.000
    N2589    N        0.34262    0.72956    0.74941    1.000
    Si2590   Si       0.34626    0.77386    0.82661    1.000
    N2591    N        0.42640    0.73098    0.82753    1.000
    Si2592   Si       0.39314    0.72835    0.80089    1.000
    Si2593   Si       0.42999    0.76225    0.85712    1.000
    N2594    N        0.38189    0.77087    0.79988    1.000
    Si2595   Si       0.46754    0.71959    0.81508    1.000
    N2596    N        0.48736    0.74925    0.78868    1.000
    N2597    N        0.27874    0.72514    0.91043    1.000
    N2598    N        0.34979    0.74169    0.94093    1.000
    Si2599   Si       0.25882    0.76103    0.89910    1.000
    Si2600   Si       0.31738    0.71598    0.92761    1.000
    N2601    N        0.46093    0.75229    0.88721    1.000
    Si2602   Si       0.36953    0.75923    0.89747    1.000
    N2603    N        0.41272    0.71641    0.96481    1.000
    Si2604   Si       0.37369    0.72716    0.97615    1.000
    N2605    N        0.38864    0.71927    0.89512    1.000
    Si2606   Si       0.29856    0.81268    0.00282    1.000
    N2607    N        0.36002    0.80174    0.04753    1.000
    N2608    N        0.29840    0.77822    0.02892    1.000
    Si2609   Si       0.39658    0.79436    0.02463    1.000
    Si2610   Si       0.42836    0.78957    0.09658    1.000
    N2611    N        0.39563    0.81660    0.10643    1.000
    N2612    N        0.47056    0.80332    0.09727    1.000
    N2613    N        0.42654    0.78408    0.05295    1.000
    N2614    N        0.49022    0.80631    0.02097    1.000
    N2615    N        0.41233    0.82686    0.99756    1.000
    Si2616   Si       0.35641    0.80903    0.12229    1.000
    N2617    N        0.27344    0.81170    0.17171    1.000
    N2618    N        0.32776    0.81155    0.21425    1.000
    N2619    N        0.39642    0.82956    0.23120    1.000
    Si2620   Si       0.41833    0.78878    0.23869    1.000
    N2621    N        0.36625    0.82437    0.16250    1.000
    Si2622   Si       0.36863    0.80818    0.20123    1.000
    N2623    N        0.46030    0.78573    0.23989    1.000
    N2624    N        0.44720    0.79346    0.16760    1.000
    N2625    N        0.35094    0.81290    0.28168    1.000
    N2626    N        0.28343    0.79620    0.26801    1.000
    Si2627   Si       0.32449    0.79168    0.25176    1.000
    N2628    N        0.25443    0.80755    0.36724    1.000
    N2629    N        0.32601    0.80147    0.36659    1.000
    Si2630   Si       0.36054    0.82738    0.36933    1.000
    N2631    N        0.39771    0.80938    0.35333    1.000
    N2632    N        0.45825    0.80246    0.32319    1.000
    N2633    N        0.40846    0.77755    0.27920    1.000
    Si2634   Si       0.42862    0.83145    0.33249    1.000
    Si2635   Si       0.28868    0.78821    0.38630    1.000
    N2636    N        0.28163    0.80059    0.42938    1.000
    Si2637   Si       0.25140    0.77566    0.44809    1.000
    Si2638   Si       0.41404    0.82415    0.42667    1.000
    Si2639   Si       0.44564    0.80756    0.49229    1.000
    N2640    N        0.41131    0.82214    0.47072    1.000
    N2641    N        0.42410    0.78239    0.41513    1.000
    N2642    N        0.47515    0.78675    0.46979    1.000
    N2643    N        0.37434    0.82994    0.40928    1.000
    N2644    N        0.31774    0.78960    0.52665    1.000
    Si2645   Si       0.29125    0.79265    0.56189    1.000
    N2646    N        0.24995    0.78499    0.55207    1.000
    N2647    N        0.28363    0.83068    0.58206    1.000
    N2648    N        0.36078    0.83080    0.60290    1.000
    Si2649   Si       0.36360    0.79165    0.53379    1.000
    Si2650   Si       0.38105    0.79320    0.60946    1.000
    N2651    N        0.43174    0.77809    0.51980    1.000
    N2652    N        0.38609    0.77655    0.56923    1.000
    N2653    N        0.25151    0.78259    0.62230    1.000
    Si2654   Si       0.27305    0.82204    0.62337    1.000
    N2655    N        0.31065    0.80743    0.64191    1.000
    N2656    N        0.33625    0.79538    0.72752    1.000
    Si2657   Si       0.24906    0.80670    0.73156    1.000
    Si2658   Si       0.35504    0.83149    0.71295    1.000
    N2659    N        0.44080    0.82264    0.69478    1.000
    N2660    N        0.42084    0.80212    0.62971    1.000
    Si2661   Si       0.41256    0.82963    0.66300    1.000
    N2662    N        0.37120    0.83024    0.67174    1.000
    Si2663   Si       0.47541    0.79666    0.68554    1.000
    Si2664   Si       0.43160    0.83076    0.73690    1.000
    N2665    N        0.34213    0.81543    0.84026    1.000
    N2666    N        0.27474    0.82413    0.81720    1.000
    Si2667   Si       0.27556    0.78124    0.81621    1.000
    N2668    N        0.44021    0.79699    0.76227    1.000
    N2669    N        0.44625    0.79289    0.82878    1.000
    Si2670   Si       0.41565    0.79918    0.79748    1.000
    Si2671   Si       0.48200    0.78502    0.76362    1.000
    Si2672   Si       0.46974    0.82514    0.84613    1.000
    N2673    N        0.39644    0.78420    0.87369    1.000
    Si2674   Si       0.31013    0.82046    0.92372    1.000
    N2675    N        0.27116    0.79764    0.92338    1.000
    N2676    N        0.34466    0.79727    0.90670    1.000
    N2677    N        0.32301    0.80977    0.96651    1.000
    Si2678   Si       0.35819    0.78609    0.95276    1.000
    N2679    N        0.25912    0.82373    0.99037    1.000
    Si2680   Si       0.24203    0.80611    0.95535    1.000
    Si2681   Si       0.36820    0.81734    0.87486    1.000
    N2682    N        0.39816    0.79176    0.94020    1.000
    Si2683   Si       0.48984    0.77873    0.98571    1.000
    Si2684   Si       0.47253    0.78440    0.91366    1.000
    Si2685   Si       0.42804    0.81695    0.95746    1.000
    N2686    N        0.46668    0.81891    0.88921    1.000
    N2687    N        0.46515    0.79512    0.95445    1.000
    N2688    N        0.31669    0.84494    0.02404    1.000
    Si2689   Si       0.34261    0.83781    0.06076    1.000
    N2690    N        0.26064    0.87436    0.11503    1.000
    Si2691   Si       0.33067    0.87488    0.99797    1.000
    N2692    N        0.32341    0.83083    0.10099    1.000
    Si2693   Si       0.30265    0.86341    0.12142    1.000
    N2694    N        0.37054    0.86715    0.06688    1.000
    Si2695   Si       0.40099    0.86073    0.10195    1.000
    N2696    N        0.48270    0.88473    0.02467    1.000
    N2697    N        0.31351    0.86449    0.16418    1.000
    N2698    N        0.27466    0.85728    0.22506    1.000
    Si2699   Si       0.35625    0.86731    0.16435    1.000
    Si2700   Si       0.29816    0.83740    0.19433    1.000
    Si2701   Si       0.25291    0.89255    0.21464    1.000
    N2702    N        0.37201    0.88547    0.12752    1.000
    Si2703   Si       0.45527    0.83607    0.15988    1.000
    N2704    N        0.45083    0.85347    0.20150    1.000
    Si2705   Si       0.41304    0.86786    0.21272    1.000
    Si2706   Si       0.48189    0.86162    0.23045    1.000
    N2707    N        0.43731    0.86358    0.13163    1.000
    N2708    N        0.38424    0.88789    0.18897    1.000
    N2709    N        0.26969    0.87830    0.36356    1.000
    N2710    N        0.35055    0.85900    0.34122    1.000
    N2711    N        0.29123    0.85417    0.29765    1.000
    N2712    N        0.35202    0.87434    0.27299    1.000
    Si2713   Si       0.33376    0.84748    0.30367    1.000
    Si2714   Si       0.27237    0.88662    0.31991    1.000
    Si2715   Si       0.26852    0.83781    0.26566    1.000
    N2716    N        0.47948    0.88025    0.27231    1.000
    N2717    N        0.45068    0.86555    0.34943    1.000
    N2718    N        0.41406    0.85065    0.29626    1.000
    Si2719   Si       0.38232    0.84304    0.27098    1.000
    Si2720   Si       0.43454    0.88518    0.28082    1.000
    N2721    N        0.34824    0.85283    0.47481    1.000
    Si2722   Si       0.35222    0.85898    0.43203    1.000
    Si2723   Si       0.27914    0.84179    0.43895    1.000
    N2724    N        0.27483    0.85505    0.47964    1.000
    N2725    N        0.31116    0.86221    0.41764    1.000
    Si2726   Si       0.24100    0.84811    0.37907    1.000
    N2727    N        0.24046    0.85747    0.42242    1.000
    Si2728   Si       0.31207    0.87214    0.49366    1.000
    N2729    N        0.43871    0.85976    0.41710    1.000
    Si2730   Si       0.47184    0.85635    0.38737    1.000
    Si2731   Si       0.38618    0.85033    0.49257    1.000
    N2732    N        0.37604    0.89492    0.43298    1.000
    Si2733   Si       0.27791    0.86923    0.56338    1.000
    N2734    N        0.31111    0.87762    0.53574    1.000
    N2735    N        0.24097    0.87143    0.53818    1.000
    N2736    N        0.41835    0.85380    0.57415    1.000
    Si2737   Si       0.37523    0.85453    0.57061    1.000
    Si2738   Si       0.43512    0.86595    0.53605    1.000
    N2739    N        0.46151    0.84200    0.51091    1.000
    N2740    N        0.40979    0.88451    0.50673    1.000
    Si2741   Si       0.43802    0.83578    0.60786    1.000
    N2742    N        0.48082    0.83700    0.60549    1.000
    N2743    N        0.37457    0.83234    0.53079    1.000
    N2744    N        0.32903    0.87813    0.64264    1.000
    N2745    N        0.32514    0.86281    0.71160    1.000
    N2746    N        0.26220    0.85719    0.64470    1.000
    Si2747   Si       0.34184    0.83732    0.64134    1.000
    Si2748   Si       0.28797    0.89226    0.63549    1.000
    N2749    N        0.38837    0.83822    0.73787    1.000
    N2750    N        0.42692    0.86568    0.63839    1.000
    N2751    N        0.33412    0.85515    0.77990    1.000
    N2752    N        0.29885    0.87806    0.83573    1.000
    Si2753   Si       0.25011    0.85402    0.84478    1.000
    Si2754   Si       0.31549    0.84183    0.81677    1.000
    Si2755   Si       0.24902    0.83802    0.78268    1.000
    Si2756   Si       0.30682    0.86825    0.74923    1.000
    N2757    N        0.27141    0.84062    0.74699    1.000
    Si2758   Si       0.37629    0.85654    0.77501    1.000
    Si2759   Si       0.40889    0.86480    0.84010    1.000
    N2760    N        0.45351    0.86524    0.84372    1.000
    N2761    N        0.39939    0.83948    0.80612    1.000
    N2762    N        0.45324    0.86514    0.75393    1.000
    N2763    N        0.31494    0.86182    0.91063    1.000
    Si2764   Si       0.34219    0.88839    0.93701    1.000
    N2765    N        0.36292    0.86674    0.96870    1.000
    N2766    N        0.25222    0.88614    0.87685    1.000
    Si2767   Si       0.29782    0.88752    0.87893    1.000
    Si2768   Si       0.40499    0.86828    0.98241    1.000
    N2769    N        0.39042    0.85434    0.87735    1.000
    N2770    N        0.42348    0.85853    0.94353    1.000
    Si2771   Si       0.40785    0.88110    0.90894    1.000
    N2772    N        0.31213    0.90551    0.10425    1.000
    N2773    N        0.34304    0.90709    0.02278    1.000
    Si2774   Si       0.35250    0.92022    0.10906    1.000
    Si2775   Si       0.26938    0.91475    0.09966    1.000
    N2776    N        0.25342    0.93006    0.06349    1.000
    N2777    N        0.42376    0.89458    0.07917    1.000
    N2778    N        0.36802    0.93767    0.07281    1.000
    N2779    N        0.45667    0.94572    0.03015    1.000
    Si2780   Si       0.38099    0.90426    0.04569    1.000
    Si2781   Si       0.44559    0.90235    0.04236    1.000
    N2782    N        0.47953    0.92103    0.10112    1.000
    Si2783   Si       0.44343    0.90383    0.11590    1.000
    Si2784   Si       0.48664    0.92466    0.00439    1.000
    N2785    N        0.41182    0.89504    0.01591    1.000
    N2786    N        0.27314    0.92869    0.20520    1.000
    N2787    N        0.25576    0.94481    0.13074    1.000
    N2788    N        0.36139    0.94888    0.14160    1.000
    N2789    N        0.46579    0.94797    0.20272    1.000
    N2790    N        0.42316    0.89755    0.24240    1.000
    N2791    N        0.42927    0.93082    0.14714    1.000
    Si2792   Si       0.39053    0.92676    0.16621    1.000
    Si2793   Si       0.42986    0.93890    0.22777    1.000
    N2794    N        0.30087    0.91735    0.30239    1.000
    Si2795   Si       0.34319    0.91459    0.28540    1.000
    Si2796   Si       0.35943    0.89930    0.35398    1.000
    N2797    N        0.34840    0.94465    0.25699    1.000
    N2798    N        0.36363    0.92713    0.32052    1.000
    N2799    N        0.43899    0.91951    0.30627    1.000
    Si2800   Si       0.43598    0.90625    0.34682    1.000
    Si2801   Si       0.48156    0.92205    0.29018    1.000
    N2802    N        0.39980    0.90081    0.37032    1.000
    N2803    N        0.46351    0.93213    0.36857    1.000
    N2804    N        0.32884    0.91887    0.37868    1.000
    N2805    N        0.27176    0.92157    0.42112    1.000
    N2806    N        0.31899    0.90971    0.47414    1.000
    Si2807   Si       0.29842    0.94185    0.45379    1.000
    Si2808   Si       0.35813    0.92484    0.45692    1.000
    Si2809   Si       0.29582    0.89503    0.39384    1.000
    Si2810   Si       0.47323    0.94945    0.40944    1.000
    Si2811   Si       0.41397    0.89666    0.41238    1.000
    N2812    N        0.43262    0.93214    0.42406    1.000
    Si2813   Si       0.32505    0.91125    0.56126    1.000
    N2814    N        0.28990    0.90514    0.59147    1.000
    Si2815   Si       0.26165    0.93917    0.59784    1.000
    N2816    N        0.32543    0.94732    0.53879    1.000
    N2817    N        0.36692    0.89829    0.57168    1.000
    Si2818   Si       0.39605    0.92915    0.57722    1.000
    N2819    N        0.43383    0.92647    0.60388    1.000
    Si2820   Si       0.47008    0.92124    0.58003    1.000
    Si2821   Si       0.41255    0.92871    0.50160    1.000
    N2822    N        0.46944    0.88919    0.54793    1.000
    N2823    N        0.29261    0.91719    0.67136    1.000
    Si2824   Si       0.25238    0.93189    0.67491    1.000
    N2825    N        0.35815    0.91775    0.70519    1.000
    Si2826   Si       0.32874    0.89533    0.68442    1.000
    N2827    N        0.46771    0.91645    0.66791    1.000
    Si2828   Si       0.46656    0.93615    0.70678    1.000
    Si2829   Si       0.39526    0.93780    0.70090    1.000
    Si2830   Si       0.43257    0.90698    0.64598    1.000
    N2831    N        0.40552    0.93654    0.66080    1.000
    N2832    N        0.42930    0.92300    0.72410    1.000
    N2833    N        0.34079    0.92790    0.81364    1.000
    N2834    N        0.29110    0.90527    0.76612    1.000
    Si2835   Si       0.29914    0.91360    0.80922    1.000
    Si2836   Si       0.25952    0.93782    0.76943    1.000
    N2837    N        0.26786    0.94464    0.81185    1.000
    Si2838   Si       0.43432    0.90274    0.76201    1.000
    Si2839   Si       0.38282    0.92762    0.80559    1.000
    N2840    N        0.39983    0.90639    0.83933    1.000
    N2841    N        0.45604    0.92818    0.78952    1.000
    Si2842   Si       0.41639    0.93748    0.86464    1.000
    N2843    N        0.39068    0.89727    0.77294    1.000
    N2844    N        0.31514    0.92753    0.87746    1.000
    Si2845   Si       0.27620    0.92799    0.96842    1.000
    N2846    N        0.31425    0.90553    0.96659    1.000
    N2847    N        0.27206    0.94827    0.93189    1.000
    Si2848   Si       0.33019    0.93764    0.99591    1.000
    Si2849   Si       0.45177    0.94012    0.92796    1.000
    Si2850   Si       0.47280    0.89244    0.87364    1.000
    N2851    N        0.47670    0.92068    0.96104    1.000
    Si2852   Si       0.37623    0.95230    0.91500    1.000
    N2853    N        0.43989    0.91283    0.89486    1.000
    N2854    N        0.37469    0.90897    0.91918    1.000
    Si2855   Si       0.28680    0.98788    0.03136    1.000
    N2856    N        0.31671    0.98886    0.06112    1.000
    N2857    N        0.35631    0.96895    0.00832    1.000
    N2858    N        0.24437    0.99260    0.03586    1.000
    Si2859   Si       0.35908    0.97458    0.05319    1.000
    N2860    N        0.29037    0.95295    0.00301    1.000
    Si2861   Si       0.43830    0.98368    0.04897    1.000
    N2862    N        0.44719    0.98162    0.09074    1.000
    N2863    N        0.39590    0.99745    0.05162    1.000
    Si2864   Si       0.37951    0.00309    0.99783    1.000
    Si2865   Si       0.34358    0.98555    0.15695    1.000
    N2866    N        0.26448    0.98330    0.18337    1.000
    N2867    N        0.32935    0.97382    0.19640    1.000
    Si2868   Si       0.29134    0.96733    0.21454    1.000
    N2869    N        0.31162    0.00429    0.13155    1.000
    Si2870   Si       0.36224    0.96844    0.22476    1.000
    Si2871   Si       0.24679    0.94315    0.17306    1.000
    N2872    N        0.37430    0.00747    0.23634    1.000
    N2873    N        0.44169    0.00329    0.15701    1.000
    Si2874   Si       0.45781    0.96266    0.16097    1.000
    N2875    N        0.39507    0.95083    0.20267    1.000
    N2876    N        0.32145    0.98254    0.32208    1.000
    N2877    N        0.25433    0.96804    0.30710    1.000
    N2878    N        0.28818    0.98094    0.25516    1.000
    Si2879   Si       0.29600    0.95938    0.29283    1.000
    Si2880   Si       0.25628    0.00063    0.27648    1.000
    Si2881   Si       0.36102    0.96895    0.33269    1.000
    N2882    N        0.39069    0.98904    0.30651    1.000
    N2883    N        0.45900    0.98083    0.32626    1.000
    Si2884   Si       0.42726    0.96460    0.30256    1.000
    N2885    N        0.43550    0.96867    0.25905    1.000
    Si2886   Si       0.47437    0.98712    0.24893    1.000
    N2887    N        0.33871    0.95917    0.43741    1.000
    N2888    N        0.28620    0.97407    0.47829    1.000
    N2889    N        0.29092    0.98109    0.39379    1.000
    Si2890   Si       0.32873    0.96000    0.39296    1.000
    Si2891   Si       0.25454    0.95760    0.39889    1.000
    Si2892   Si       0.24632    0.98843    0.46917    1.000
    Si2893   Si       0.36494    0.98890    0.46445    1.000
    N2894    N        0.36349    0.97871    0.37608    1.000
    N2895    N        0.34430    0.00647    0.49779    1.000
    N2896    N        0.46563    0.98365    0.43535    1.000
    N2897    N        0.40199    0.00427    0.44395    1.000
    Si2898   Si       0.42993    0.96676    0.45390    1.000
    N2899    N        0.38799    0.95256    0.47580    1.000
    N2900    N        0.45094    0.94863    0.49154    1.000
    Si2901   Si       0.31200    0.98091    0.51668    1.000
    N2902    N        0.28332    0.97485    0.61357    1.000
    N2903    N        0.28104    0.00127    0.54348    1.000
    Si2904   Si       0.24068    0.98499    0.54159    1.000
    Si2905   Si       0.29139    0.00866    0.58441    1.000
    N2906    N        0.48379    0.95522    0.55808    1.000
    N2907    N        0.38228    0.96342    0.60151    1.000
    Si2908   Si       0.45019    0.96781    0.53311    1.000
    N2909    N        0.46964    0.00812    0.52924    1.000
    N2910    N        0.41358    0.94713    0.54019    1.000
    Si2911   Si       0.35599    0.99333    0.62169    1.000
    N2912    N        0.33136    0.98221    0.65905    1.000
    Si2913   Si       0.28826    0.99262    0.65493    1.000
    N2914    N        0.25628    0.97404    0.67969    1.000
    Si2915   Si       0.36250    0.00007    0.68473    1.000
    N2916    N        0.44572    0.99379    0.63861    1.000
    Si2917   Si       0.42717    0.00195    0.71745    1.000
    N2918    N        0.38604    0.01144    0.64849    1.000
    N2919    N        0.39157    0.98085    0.70835    1.000
    Si2920   Si       0.41541    0.96408    0.62975    1.000
    N2921    N        0.46080    0.97811    0.70106    1.000
    Si2922   Si       0.48130    0.99314    0.66403    1.000
    N2923    N        0.34123    0.99302    0.83341    1.000
    Si2924   Si       0.26603    0.98555    0.82977    1.000
    N2925    N        0.25290    0.97785    0.74811    1.000
    Si2926   Si       0.33995    0.95153    0.84926    1.000
    Si2927   Si       0.44243    0.96929    0.80503    1.000
    N2928    N        0.39966    0.96653    0.79280    1.000
    N2929    N        0.44393    0.96590    0.84869    1.000
    N2930    N        0.47087    0.99872    0.79389    1.000
    Si2931   Si       0.37744    0.00327    0.85521    1.000
    Si2932   Si       0.48463    0.96345    0.86598    1.000
    Si2933   Si       0.38763    0.00643    0.78277    1.000
    N2934    N        0.37845    0.96001    0.87094    1.000
    N2935    N        0.28517    0.98682    0.87255    1.000
    Si2936   Si       0.30064    0.95950    0.90418    1.000
    N2937    N        0.33898    0.97252    0.92393    1.000
    Si2938   Si       0.41483    0.00540    0.94481    1.000
    N2939    N        0.48421    0.96766    0.90931    1.000
    N2940    N        0.42138    0.99548    0.98703    1.000
    N2941    N        0.41561    0.96457    0.92704    1.000
    N2942    N        0.52844    0.04073    0.05535    1.000
    Si2943   Si       0.55695    0.04597    0.02464    1.000
    N2944    N        0.59267    0.06305    0.04396    1.000
    Si2945   Si       0.54226    0.01363    0.08945    1.000
    Si2946   Si       0.69292    0.02613    0.05814    1.000
    Si2947   Si       0.63322    0.05500    0.03040    1.000
    N2948    N        0.67292    0.01548    0.09644    1.000
    N2949    N        0.67155    0.06213    0.04699    1.000
    N2950    N        0.73502    0.03575    0.05862    1.000
    N2951    N        0.63299    0.00897    0.03536    1.000
    N2952    N        0.53739    0.03883    0.12460    1.000
    Si2953   Si       0.55772    0.05390    0.19710    1.000
    N2954    N        0.57461    0.05624    0.23826    1.000
    N2955    N        0.54515    0.01442    0.18913    1.000
    Si2956   Si       0.73355    0.05229    0.14795    1.000
    N2957    N        0.72370    0.01597    0.21964    1.000
    N2958    N        0.62708    0.01074    0.15055    1.000
    Si2959   Si       0.66173    0.03273    0.13500    1.000
    N2960    N        0.69757    0.02589    0.15773    1.000
    Si2961   Si       0.69116    0.03715    0.20038    1.000
    N2962    N        0.65453    0.01983    0.21122    1.000
    N2963    N        0.56217    0.04140    0.30699    1.000
    N2964    N        0.50869    0.04478    0.33942    1.000
    Si2965   Si       0.57770    0.02660    0.26949    1.000
    Si2966   Si       0.54416    0.01702    0.33646    1.000
    N2967    N        0.68578    0.03539    0.27205    1.000
    N2968    N        0.65282    0.02247    0.33084    1.000
    Si2969   Si       0.72736    0.03195    0.25917    1.000
    Si2970   Si       0.64670    0.03028    0.28630    1.000
    Si2971   Si       0.64312    0.04564    0.36595    1.000
    N2972    N        0.71952    0.00945    0.35485    1.000
    N2973    N        0.56290    0.01609    0.37601    1.000
    Si2974   Si       0.49581    0.05709    0.37949    1.000
    N2975    N        0.51019    0.03526    0.41718    1.000
    Si2976   Si       0.59137    0.04146    0.39858    1.000
    N2977    N        0.54291    0.03183    0.48092    1.000
    Si2978   Si       0.53493    0.05666    0.44588    1.000
    N2979    N        0.57727    0.06536    0.43317    1.000
    N2980    N        0.67182    0.04197    0.45835    1.000
    Si2981   Si       0.72363    0.01123    0.39883    1.000
    N2982    N        0.72744    0.05029    0.41936    1.000
    Si2983   Si       0.68637    0.06409    0.42416    1.000
    N2984    N        0.62865    0.01851    0.39763    1.000
    Si2985   Si       0.54551    0.05148    0.52041    1.000
    N2986    N        0.58747    0.04468    0.54063    1.000
    Si2987   Si       0.52234    0.04165    0.61489    1.000
    Si2988   Si       0.56687    0.02009    0.57801    1.000
    N2989    N        0.53418    0.01571    0.54634    1.000
    N2990    N        0.55925    0.06311    0.59718    1.000
    N2991    N        0.71293    0.03285    0.55781    1.000
    N2992    N        0.65537    0.02477    0.54137    1.000
    Si2993   Si       0.67937    0.05956    0.55010    1.000
    Si2994   Si       0.61391    0.00952    0.53441    1.000
    N2995    N        0.53825    0.05146    0.70919    1.000
    N2996    N        0.50343    0.03299    0.65478    1.000
    Si2997   Si       0.55637    0.01366    0.71359    1.000
    N2998    N        0.59442    0.01391    0.73817    1.000
    Si2999   Si       0.51055    0.06783    0.68012    1.000
    N3000    N        0.68731    0.04965    0.69923    1.000
    N3001    N        0.66998    0.04457    0.62755    1.000
    Si3002   Si       0.71871    0.02478    0.68725    1.000
    N3003    N        0.62328    0.04280    0.67801    1.000
    Si3004   Si       0.67209    0.04496    0.73925    1.000
    N3005    N        0.63373    0.06676    0.74307    1.000
    Si3006   Si       0.66542    0.06856    0.66618    1.000
    N3007    N        0.53270    0.03183    0.80963    1.000
    Si3008   Si       0.60104    0.04742    0.84074    1.000
    Si3009   Si       0.60193    0.04718    0.76505    1.000
    N3010    N        0.57653    0.02446    0.86829    1.000
    Si3011   Si       0.53456    0.02810    0.85494    1.000
    N3012    N        0.51062    0.06479    0.86387    1.000
    N3013    N        0.61993    0.03300    0.80329    1.000
    N3014    N        0.73592    0.02884    0.82687    1.000
    N3015    N        0.70644    0.05996    0.76155    1.000
    Si3016   Si       0.72396    0.06137    0.80109    1.000
    N3017    N        0.63583    0.06264    0.85962    1.000
    N3018    N        0.59142    0.03580    0.93929    1.000
    Si3019   Si       0.55539    0.05630    0.95015    1.000
    N3020    N        0.52815    0.03384    0.92226    1.000
    N3021    N        0.53906    0.06390    0.98952    1.000
    Si3022   Si       0.58993    0.00757    0.90557    1.000
    Si3023   Si       0.65353    0.03568    0.88661    1.000
    N3024    N        0.65829    0.05592    0.92606    1.000
    Si3025   Si       0.70687    0.03872    0.92527    1.000
    Si3026   Si       0.63021    0.04439    0.95885    1.000
    N3027    N        0.69662    0.03561    0.88138    1.000
    Si3028   Si       0.58100    0.10029    0.06099    1.000
    N3029    N        0.57684    0.10316    0.10382    1.000
    N3030    N        0.54603    0.11256    0.03609    1.000
    Si3031   Si       0.51676    0.09958    0.00653    1.000
    Si3032   Si       0.68422    0.10365    0.04347    1.000
    N3033    N        0.72682    0.10126    0.03225    1.000
    N3034    N        0.66675    0.12119    0.08124    1.000
    N3035    N        0.72166    0.08461    0.12298    1.000
    N3036    N        0.66618    0.12647    0.01179    1.000
    Si3037   Si       0.68252    0.10542    0.12097    1.000
    Si3038   Si       0.55300    0.07950    0.13268    1.000
    N3039    N        0.51553    0.10270    0.13470    1.000
    N3040    N        0.52306    0.08140    0.20621    1.000
    Si3041   Si       0.49388    0.10034    0.18110    1.000
    N3042    N        0.58030    0.07139    0.16496    1.000
    Si3043   Si       0.54244    0.09833    0.24336    1.000
    Si3044   Si       0.60739    0.08443    0.24601    1.000
    Si3045   Si       0.62038    0.08654    0.16512    1.000
    N3046    N        0.69560    0.08113    0.20685    1.000
    N3047    N        0.62882    0.09151    0.20770    1.000
    N3048    N        0.65383    0.07534    0.13694    1.000
    Si3049   Si       0.66446    0.10955    0.22042    1.000
    Si3050   Si       0.73878    0.08906    0.21561    1.000
    Si3051   Si       0.59128    0.10669    0.35268    1.000
    N3052    N        0.55696    0.10731    0.32441    1.000
    N3053    N        0.58072    0.11549    0.25962    1.000
    N3054    N        0.51638    0.08002    0.27406    1.000
    Si3055   Si       0.53106    0.07376    0.31422    1.000
    N3056    N        0.68507    0.10325    0.31799    1.000
    Si3057   Si       0.64674    0.10574    0.29632    1.000
    Si3058   Si       0.69034    0.10228    0.36138    1.000
    N3059    N        0.62827    0.06957    0.27984    1.000
    N3060    N        0.65464    0.12753    0.26015    1.000
    N3061    N        0.61907    0.12581    0.32371    1.000
    N3062    N        0.50111    0.09835    0.38638    1.000
    N3063    N        0.51043    0.09309    0.45938    1.000
    Si3064   Si       0.58245    0.09165    0.46887    1.000
    N3065    N        0.60523    0.06973    0.36842    1.000
    N3066    N        0.67308    0.10198    0.44337    1.000
    N3067    N        0.73120    0.12536    0.48220    1.000
    N3068    N        0.67475    0.06765    0.38163    1.000
    Si3069   Si       0.65956    0.07963    0.47844    1.000
    N3070    N        0.61860    0.08872    0.49135    1.000
    Si3071   Si       0.52700    0.10778    0.53174    1.000
    N3072    N        0.56087    0.09082    0.50899    1.000
    Si3073   Si       0.56864    0.10588    0.59459    1.000
    Si3074   Si       0.59787    0.08554    0.53050    1.000
    N3075    N        0.60217    0.11300    0.56388    1.000
    N3076    N        0.53121    0.12069    0.57264    1.000
    N3077    N        0.50169    0.07225    0.52296    1.000
    Si3078   Si       0.70947    0.11665    0.51881    1.000
    N3079    N        0.68493    0.09182    0.57853    1.000
    N3080    N        0.68237    0.08353    0.51372    1.000
    Si3081   Si       0.70290    0.07102    0.61376    1.000
    Si3082   Si       0.55110    0.08777    0.72973    1.000
    N3083    N        0.53066    0.10387    0.66463    1.000
    N3084    N        0.51507    0.11073    0.73094    1.000
    N3085    N        0.58248    0.10197    0.70438    1.000
    Si3086   Si       0.70327    0.12539    0.68329    1.000
    N3087    N        0.70907    0.12094    0.72760    1.000
    Si3088   Si       0.61625    0.07471    0.70366    1.000
    N3089    N        0.64638    0.10153    0.68705    1.000
    N3090    N        0.69878    0.09521    0.64983    1.000
    Si3091   Si       0.73331    0.09065    0.74553    1.000
    N3092    N        0.51270    0.10223    0.80318    1.000
    N3093    N        0.57546    0.07995    0.83148    1.000
    Si3094   Si       0.59320    0.11905    0.83603    1.000
    N3095    N        0.56751    0.07431    0.76646    1.000
    Si3096   Si       0.54547    0.07327    0.80258    1.000
    N3097    N        0.69403    0.08219    0.82665    1.000
    Si3098   Si       0.65908    0.09724    0.84652    1.000
    Si3099   Si       0.71194    0.07644    0.86686    1.000
    N3100    N        0.63454    0.12405    0.82242    1.000
    N3101    N        0.54803    0.09315    0.92629    1.000
    Si3102   Si       0.51513    0.07373    0.90739    1.000
    N3103    N        0.65208    0.12436    0.94696    1.000
    Si3104   Si       0.63230    0.11662    0.98613    1.000
    Si3105   Si       0.67735    0.09681    0.92670    1.000
    N3106    N        0.71398    0.08139    0.94336    1.000
    N3107    N        0.68402    0.10660    0.88444    1.000
    N3108    N        0.63486    0.07266    0.99011    1.000
    Si3109   Si       0.57139    0.14211    0.01548    1.000
    N3110    N        0.55015    0.17881    0.01578    1.000
    N3111    N        0.60421    0.13323    0.04201    1.000
    N3112    N        0.61088    0.16976    0.09754    1.000
    Si3113   Si       0.59235    0.13824    0.12246    1.000
    N3114    N        0.72406    0.16495    0.00858    1.000
    Si3115   Si       0.63766    0.15098    0.06853    1.000
    Si3116   Si       0.68073    0.16693    0.01026    1.000
    N3117    N        0.65974    0.18222    0.04488    1.000
    N3118    N        0.50223    0.14594    0.18017    1.000
    N3119    N        0.55882    0.15761    0.14285    1.000
    Si3120   Si       0.51781    0.14711    0.13883    1.000
    N3121    N        0.60423    0.17384    0.19922    1.000
    Si3122   Si       0.49426    0.16710    0.22241    1.000
    Si3123   Si       0.69800    0.18090    0.15244    1.000
    N3124    N        0.62046    0.12781    0.15098    1.000
    Si3125   Si       0.63859    0.15612    0.17821    1.000
    N3126    N        0.70339    0.14250    0.13558    1.000
    Si3127   Si       0.70997    0.16258    0.21612    1.000
    N3128    N        0.67256    0.14804    0.20174    1.000
    N3129    N        0.56956    0.17544    0.31257    1.000
    Si3130   Si       0.57980    0.13578    0.29849    1.000
    N3131    N        0.52885    0.17586    0.36477    1.000
    Si3132   Si       0.57260    0.17113    0.35860    1.000
    Si3133   Si       0.49235    0.16285    0.34201    1.000
    N3134    N        0.61532    0.18226    0.35751    1.000
    N3135    N        0.51640    0.13441    0.24463    1.000
    Si3136   Si       0.66812    0.16843    0.27228    1.000
    Si3137   Si       0.64460    0.15307    0.34668    1.000
    N3138    N        0.67305    0.16844    0.31619    1.000
    Si3139   Si       0.71342    0.14079    0.31715    1.000
    N3140    N        0.70741    0.17832    0.25541    1.000
    N3141    N        0.72457    0.12915    0.35835    1.000
    N3142    N        0.73203    0.18529    0.31900    1.000
    Si3143   Si       0.59155    0.15317    0.42193    1.000
    N3144    N        0.51114    0.15581    0.43394    1.000
    N3145    N        0.58183    0.13612    0.38315    1.000
    Si3146   Si       0.52903    0.13231    0.46560    1.000
    N3147    N        0.57162    0.13121    0.45454    1.000
    Si3148   Si       0.66792    0.14095    0.42308    1.000
    Si3149   Si       0.74073    0.14286    0.44381    1.000
    N3150    N        0.66313    0.13229    0.38013    1.000
    N3151    N        0.63215    0.16354    0.43582    1.000
    N3152    N        0.70628    0.16509    0.43128    1.000
    N3153    N        0.51886    0.14166    0.50655    1.000
    N3154    N        0.50606    0.17664    0.61217    1.000
    Si3155   Si       0.49584    0.14061    0.59071    1.000
    Si3156   Si       0.49463    0.17203    0.52431    1.000
    N3157    N        0.59390    0.18122    0.58913    1.000
    Si3158   Si       0.62254    0.14989    0.57565    1.000
    N3159    N        0.69401    0.15055    0.54240    1.000
    N3160    N        0.65760    0.15291    0.60131    1.000
    Si3161   Si       0.69074    0.13543    0.58295    1.000
    N3162    N        0.63259    0.17642    0.54202    1.000
    N3163    N        0.73194    0.13996    0.59832    1.000
    Si3164   Si       0.67263    0.18455    0.52750    1.000
    N3165    N        0.60149    0.16084    0.67707    1.000
    N3166    N        0.54033    0.16033    0.68902    1.000
    Si3167   Si       0.59568    0.17522    0.63294    1.000
    N3168    N        0.57925    0.13198    0.62875    1.000
    Si3169   Si       0.50833    0.12988    0.69392    1.000
    Si3170   Si       0.56849    0.12657    0.67165    1.000
    N3171    N        0.71670    0.18768    0.73570    1.000
    Si3172   Si       0.68815    0.15450    0.74473    1.000
    Si3173   Si       0.63840    0.14460    0.69495    1.000
    Si3174   Si       0.66961    0.17717    0.63489    1.000
    N3175    N        0.64507    0.15944    0.73527    1.000
    N3176    N        0.67472    0.15742    0.67449    1.000
    N3177    N        0.56719    0.14933    0.82042    1.000
    Si3178   Si       0.52522    0.14482    0.80807    1.000
    N3179    N        0.51924    0.17116    0.77293    1.000
    N3180    N        0.49765    0.16271    0.83637    1.000
    N3181    N        0.68565    0.16737    0.78782    1.000
    N3182    N        0.66806    0.17205    0.85429    1.000
    Si3183   Si       0.65134    0.16284    0.81471    1.000
    N3184    N        0.61890    0.18788    0.79987    1.000
    Si3185   Si       0.59404    0.16871    0.89634    1.000
    N3186    N        0.55866    0.16179    0.92274    1.000
    N3187    N        0.51886    0.13389    0.97679    1.000
    N3188    N        0.59936    0.13055    0.87765    1.000
    Si3189   Si       0.51371    0.17572    0.98964    1.000
    N3190    N        0.58874    0.12724    0.97973    1.000
    Si3191   Si       0.55437    0.12907    0.94915    1.000
    Si3192   Si       0.66282    0.16452    0.93733    1.000
    N3193    N        0.62580    0.18090    0.92325    1.000
    Si3194   Si       0.69861    0.14798    0.87608    1.000
    N3195    N        0.69865    0.16783    0.91482    1.000
    Si3196   Si       0.55732    0.21784    0.03145    1.000
    Si3197   Si       0.59471    0.21083    0.09938    1.000
    N3198    N        0.56094    0.22179    0.07428    1.000
    N3199    N        0.48833    0.23090    0.07764    1.000
    N3200    N        0.58118    0.23283    0.99542    1.000
    N3201    N        0.62766    0.23662    0.08735    1.000
    Si3202   Si       0.72873    0.22369    0.08643    1.000
    Si3203   Si       0.65720    0.22288    0.05923    1.000
    N3204    N        0.70915    0.23611    0.00137    1.000
    Si3205   Si       0.73840    0.20710    0.01275    1.000
    N3206    N        0.69683    0.23993    0.06535    1.000
    N3207    N        0.52223    0.23849    0.12934    1.000
    Si3208   Si       0.54152    0.22460    0.23439    1.000
    N3209    N        0.58885    0.21891    0.14379    1.000
    N3210    N        0.54550    0.21707    0.19155    1.000
    Si3211   Si       0.61255    0.20597    0.22766    1.000
    Si3212   Si       0.57232    0.18638    0.17277    1.000
    Si3213   Si       0.63213    0.22660    0.15586    1.000
    N3214    N        0.62575    0.23484    0.19943    1.000
    N3215    N        0.65474    0.18942    0.15499    1.000
    N3216    N        0.72742    0.18709    0.18491    1.000
    N3217    N        0.71530    0.20943    0.12467    1.000
    Si3218   Si       0.57723    0.21621    0.29696    1.000
    N3219    N        0.57755    0.21190    0.25324    1.000
    N3220    N        0.50578    0.20183    0.24790    1.000
    N3221    N        0.50207    0.24284    0.35583    1.000
    N3222    N        0.61705    0.23002    0.31068    1.000
    Si3223   Si       0.62640    0.22330    0.35254    1.000
    Si3224   Si       0.69489    0.20506    0.32995    1.000
    N3225    N        0.67001    0.22168    0.35979    1.000
    N3226    N        0.69178    0.23338    0.29774    1.000
    N3227    N        0.64340    0.20054    0.25577    1.000
    Si3228   Si       0.65070    0.23408    0.28043    1.000
    Si3229   Si       0.72835    0.21363    0.26860    1.000
    N3230    N        0.60816    0.22636    0.46522    1.000
    N3231    N        0.53607    0.21170    0.48146    1.000
    Si3232   Si       0.56761    0.21803    0.45183    1.000
    N3233    N        0.49996    0.21784    0.42093    1.000
    N3234    N        0.56913    0.19275    0.41593    1.000
    Si3235   Si       0.49678    0.21388    0.46639    1.000
    Si3236   Si       0.52636    0.18556    0.40669    1.000
    N3237    N        0.67329    0.22520    0.43694    1.000
    N3238    N        0.67087    0.18795    0.48499    1.000
    Si3239   Si       0.70422    0.20075    0.45855    1.000
    N3240    N        0.73425    0.20677    0.48948    1.000
    Si3241   Si       0.64072    0.20042    0.45600    1.000
    Si3242   Si       0.54077    0.23180    0.52174    1.000
    N3243    N        0.58575    0.23136    0.52915    1.000
    N3244    N        0.51362    0.20614    0.54413    1.000
    Si3245   Si       0.49455    0.20859    0.58383    1.000
    Si3246   Si       0.60845    0.20912    0.55847    1.000
    N3247    N        0.69437    0.21990    0.54231    1.000
    N3248    N        0.63735    0.23534    0.57595    1.000
    Si3249   Si       0.73344    0.22311    0.52816    1.000
    Si3250   Si       0.63861    0.24022    0.61873    1.000
    Si3251   Si       0.49691    0.23268    0.71305    1.000
    N3252    N        0.55908    0.20367    0.64569    1.000
    N3253    N        0.59133    0.23272    0.68979    1.000
    N3254    N        0.50162    0.22019    0.67104    1.000
    Si3255   Si       0.57453    0.19231    0.69602    1.000
    N3256    N        0.52801    0.23980    0.74236    1.000
    N3257    N        0.57991    0.19496    0.74174    1.000
    Si3258   Si       0.57163    0.24346    0.65231    1.000
    Si3259   Si       0.51778    0.18302    0.65354    1.000
    Si3260   Si       0.70873    0.23541    0.65382    1.000
    N3261    N        0.69916    0.24338    0.69552    1.000
    N3262    N        0.64457    0.22743    0.74166    1.000
    N3263    N        0.70925    0.19469    0.63437    1.000
    N3264    N        0.63449    0.20094    0.63751    1.000
    Si3265   Si       0.73447    0.22870    0.72298    1.000
    N3266    N        0.55668    0.21954    0.80418    1.000
    Si3267   Si       0.54450    0.20660    0.76414    1.000
    N3268    N        0.58947    0.19864    0.86385    1.000
    Si3269   Si       0.58239    0.19083    0.82343    1.000
    N3270    N        0.68145    0.22997    0.81841    1.000
    Si3271   Si       0.70616    0.20673    0.78523    1.000
    Si3272   Si       0.68215    0.21310    0.86036    1.000
    Si3273   Si       0.62250    0.19293    0.75611    1.000
    N3274    N        0.72551    0.20595    0.86779    1.000
    N3275    N        0.71005    0.24491    0.75849    1.000
    N3276    N        0.52993    0.21879    0.89202    1.000
    N3277    N        0.52176    0.20213    0.95731    1.000
    Si3278   Si       0.55642    0.23470    0.95876    1.000
    Si3279   Si       0.57210    0.23308    0.88503    1.000
    N3280    N        0.58638    0.23539    0.92605    1.000
    Si3281   Si       0.52041    0.18595    0.91717    1.000
    Si3282   Si       0.73109    0.19953    0.91122    1.000
    Si3283   Si       0.68459    0.22707    0.96745    1.000
    N3284    N        0.71293    0.23115    0.93400    1.000
    N3285    N        0.65349    0.23079    0.89041    1.000
    Si3286   Si       0.62849    0.22338    0.92542    1.000
    N3287    N        0.66908    0.18724    0.97480    1.000
    N3288    N        0.52806    0.29114    0.08274    1.000
    Si3289   Si       0.52244    0.28212    0.00612    1.000
    N3290    N        0.59590    0.29857    0.07058    1.000
    Si3291   Si       0.52906    0.24832    0.08527    1.000
    N3292    N        0.52183    0.24247    0.02396    1.000
    Si3293   Si       0.69174    0.26436    0.02853    1.000
    Si3294   Si       0.62922    0.27517    0.06710    1.000
    N3295    N        0.64674    0.25817    0.02947    1.000
    N3296    N        0.66401    0.29790    0.08233    1.000
    N3297    N        0.54347    0.26716    0.23619    1.000
    N3298    N        0.56183    0.28483    0.15855    1.000
    Si3299   Si       0.51165    0.29888    0.23491    1.000
    Si3300   Si       0.55346    0.24380    0.15714    1.000
    Si3301   Si       0.71790    0.27191    0.20500    1.000
    N3302    N        0.72976    0.24512    0.23917    1.000
    N3303    N        0.68185    0.29211    0.20581    1.000
    Si3304   Si       0.64378    0.27121    0.21279    1.000
    N3305    N        0.65485    0.26166    0.14482    1.000
    Si3306   Si       0.65715    0.29951    0.12536    1.000
    N3307    N        0.73818    0.26140    0.16910    1.000
    Si3308   Si       0.53157    0.26937    0.33881    1.000
    Si3309   Si       0.55897    0.28529    0.27327    1.000
    N3310    N        0.55256    0.25283    0.30244    1.000
    N3311    N        0.56151    0.28168    0.36702    1.000
    N3312    N        0.72318    0.27692    0.35318    1.000
    Si3313   Si       0.70371    0.27448    0.31307    1.000
    N3314    N        0.64557    0.26828    0.25545    1.000
    N3315    N        0.73198    0.29486    0.28754    1.000
    N3316    N        0.66594    0.29635    0.31347    1.000
    Si3317   Si       0.51294    0.27218    0.44384    1.000
    Si3318   Si       0.58075    0.25977    0.40229    1.000
    N3319    N        0.55115    0.25499    0.43378    1.000
    N3320    N        0.58751    0.29055    0.49117    1.000
    N3321    N        0.59549    0.30024    0.41975    1.000
    N3322    N        0.72973    0.25091    0.42803    1.000
    N3323    N        0.61850    0.24162    0.39013    1.000
    N3324    N        0.65504    0.29398    0.45387    1.000
    Si3325   Si       0.66478    0.24163    0.39627    1.000
    Si3326   Si       0.69121    0.26651    0.44383    1.000
    N3327    N        0.70678    0.28184    0.48176    1.000
    N3328    N        0.67733    0.28321    0.40198    1.000
    Si3329   Si       0.66790    0.29376    0.49407    1.000
    Si3330   Si       0.51501    0.27970    0.57437    1.000
    N3331    N        0.53547    0.27203    0.53707    1.000
    N3332    N        0.51040    0.24428    0.60049    1.000
    Si3333   Si       0.60722    0.25376    0.49909    1.000
    N3334    N        0.64628    0.26166    0.51520    1.000
    N3335    N        0.68776    0.28963    0.57067    1.000
    Si3336   Si       0.66862    0.25285    0.55229    1.000
    Si3337   Si       0.68033    0.29535    0.61323    1.000
    Si3338   Si       0.50436    0.25471    0.64278    1.000
    N3339    N        0.60040    0.26300    0.62675    1.000
    N3340    N        0.53990    0.27458    0.65744    1.000
    Si3341   Si       0.61331    0.25136    0.72091    1.000
    N3342    N        0.67598    0.25618    0.63127    1.000
    Si3343   Si       0.67548    0.25571    0.72995    1.000
    N3344    N        0.64630    0.28202    0.71277    1.000
    Si3345   Si       0.54425    0.25752    0.82282    1.000
    N3346    N        0.57427    0.26609    0.85515    1.000
    N3347    N        0.50443    0.25941    0.84069    1.000
    N3348    N        0.53522    0.29032    0.79548    1.000
    Si3349   Si       0.54611    0.27922    0.75168    1.000
    N3350    N        0.58792    0.27348    0.75004    1.000
    Si3351   Si       0.60691    0.29890    0.84708    1.000
    Si3352   Si       0.49126    0.28789    0.80938    1.000
    Si3353   Si       0.67139    0.27185    0.81149    1.000
    N3354    N        0.64691    0.28428    0.84557    1.000
    Si3355   Si       0.72898    0.27783    0.77810    1.000
    N3356    N        0.71338    0.28797    0.81804    1.000
    N3357    N        0.65679    0.29281    0.77558    1.000
    Si3358   Si       0.72659    0.29595    0.85709    1.000
    Si3359   Si       0.50585    0.25258    0.88205    1.000
    N3360    N        0.53308    0.27187    0.96555    1.000
    N3361    N        0.52737    0.28587    0.89994    1.000
    N3362    N        0.61008    0.29277    0.98159    1.000
    Si3363   Si       0.65910    0.27266    0.88643    1.000
    Si3364   Si       0.61976    0.25315    0.99473    1.000
    N3365    N        0.64661    0.24577    0.95989    1.000
    N3366    N        0.69053    0.29053    0.95175    1.000
    Si3367   Si       0.71944    0.27256    0.92460    1.000
    N3368    N        0.70133    0.27771    0.88539    1.000
    N3369    N        0.63700    0.29682    0.91634    1.000
    Si3370   Si       0.64801    0.29452    0.95831    1.000
    Si3371   Si       0.55875    0.31695    0.06380    1.000
    Si3372   Si       0.49543    0.31669    0.09445    1.000
    N3373    N        0.55530    0.35604    0.08403    1.000
    N3374    N        0.55177    0.31067    0.02184    1.000
    Si3375   Si       0.49312    0.34938    0.02172    1.000
    N3376    N        0.49132    0.34849    0.06468    1.000
    N3377    N        0.59351    0.36001    0.99846    1.000
    Si3378   Si       0.68986    0.32906    0.06464    1.000
    N3379    N        0.72206    0.35190    0.08784    1.000
    Si3380   Si       0.73413    0.33020    0.00474    1.000
    N3381    N        0.70701    0.30654    0.02915    1.000
    N3382    N        0.66707    0.36079    0.04906    1.000
    Si3383   Si       0.49200    0.35688    0.20420    1.000
    N3384    N        0.56719    0.34731    0.16467    1.000
    N3385    N        0.49989    0.33359    0.13380    1.000
    N3386    N        0.51376    0.32078    0.19881    1.000
    Si3387   Si       0.59562    0.31200    0.16536    1.000
    Si3388   Si       0.53179    0.32067    0.15970    1.000
    N3389    N        0.62105    0.30554    0.19744    1.000
    N3390    N        0.62223    0.32362    0.13343    1.000
    N3391    N        0.68295    0.33116    0.13702    1.000
    Si3392   Si       0.65751    0.32981    0.20597    1.000
    Si3393   Si       0.64449    0.36118    0.13766    1.000
    N3394    N        0.52901    0.31842    0.26915    1.000
    Si3395   Si       0.52347    0.34039    0.30540    1.000
    Si3396   Si       0.59420    0.34681    0.29098    1.000
    N3397    N        0.51304    0.30864    0.33168    1.000
    N3398    N        0.59660    0.30548    0.27950    1.000
    N3399    N        0.56265    0.35464    0.31649    1.000
    N3400    N        0.65144    0.33579    0.24852    1.000
    Si3401   Si       0.65494    0.33113    0.33920    1.000
    N3402    N        0.69396    0.33900    0.36220    1.000
    N3403    N        0.63288    0.34973    0.30779    1.000
    Si3404   Si       0.64073    0.30435    0.27792    1.000
    Si3405   Si       0.58627    0.31669    0.37751    1.000
    N3406    N        0.57232    0.35460    0.44658    1.000
    N3407    N        0.52724    0.30857    0.46176    1.000
    Si3408   Si       0.57144    0.31185    0.45399    1.000
    Si3409   Si       0.50918    0.33422    0.49214    1.000
    N3410    N        0.56945    0.35635    0.38077    1.000
    N3411    N        0.50210    0.35857    0.41001    1.000
    N3412    N        0.62743    0.31837    0.37239    1.000
    Si3413   Si       0.71055    0.30514    0.38387    1.000
    Si3414   Si       0.64023    0.31231    0.41499    1.000
    N3415    N        0.63911    0.35478    0.43148    1.000
    N3416    N        0.73852    0.31554    0.41706    1.000
    N3417    N        0.54506    0.33863    0.51701    1.000
    Si3418   Si       0.50624    0.34050    0.60063    1.000
    N3419    N        0.59598    0.32560    0.55254    1.000
    N3420    N        0.53770    0.31489    0.58688    1.000
    Si3421   Si       0.56721    0.34829    0.58338    1.000
    Si3422   Si       0.56705    0.30200    0.52783    1.000
    N3423    N        0.49035    0.36183    0.56550    1.000
    Si3424   Si       0.69660    0.32563    0.54825    1.000
    N3425    N        0.66406    0.32791    0.52105    1.000
    Si3426   Si       0.62784    0.34758    0.53309    1.000
    N3427    N        0.72841    0.32816    0.51854    1.000
    N3428    N        0.64560    0.31634    0.62111    1.000
    N3429    N        0.59146    0.34513    0.62002    1.000
    N3430    N        0.53402    0.30793    0.72163    1.000
    N3431    N        0.54826    0.35253    0.67315    1.000
    Si3432   Si       0.55219    0.31061    0.68148    1.000
    N3433    N        0.59647    0.30627    0.67471    1.000
    Si3434   Si       0.51752    0.34409    0.73999    1.000
    Si3435   Si       0.60400    0.30488    0.63083    1.000
    N3436    N        0.61298    0.33521    0.73686    1.000
    Si3437   Si       0.63917    0.35722    0.64021    1.000
    Si3438   Si       0.62968    0.31977    0.69948    1.000
    N3439    N        0.71507    0.31611    0.62582    1.000
    N3440    N        0.65564    0.34605    0.67963    1.000
    N3441    N        0.72956    0.34304    0.69084    1.000
    Si3442   Si       0.69086    0.36412    0.69801    1.000
    Si3443   Si       0.55726    0.32895    0.80259    1.000
    N3444    N        0.59704    0.31175    0.80608    1.000
    N3445    N        0.55232    0.35211    0.76569    1.000
    N3446    N        0.54933    0.35879    0.83133    1.000
    N3447    N        0.61036    0.33811    0.86838    1.000
    Si3448   Si       0.67855    0.33004    0.76349    1.000
    N3449    N        0.72838    0.34047    0.86636    1.000
    N3450    N        0.71611    0.30915    0.75038    1.000
    N3451    N        0.67739    0.35021    0.80247    1.000
    Si3452   Si       0.61530    0.30195    0.76693    1.000
    N3453    N        0.55536    0.33147    0.95253    1.000
    Si3454   Si       0.57791    0.32229    0.98931    1.000
    Si3455   Si       0.52467    0.30423    0.93800    1.000
    N3456    N        0.73255    0.34207    0.96096    1.000
    N3457    N        0.65781    0.33963    0.97121    1.000
    Si3458   Si       0.69259    0.33229    0.94818    1.000
    N3459    N        0.67754    0.35124    0.91052    1.000
    Si3460   Si       0.63544    0.34116    0.90538    1.000
    Si3461   Si       0.52169    0.38349    0.06476    1.000
    N3462    N        0.52806    0.37733    0.02164    1.000
    Si3463   Si       0.57020    0.38960    0.10909    1.000
    N3464    N        0.55348    0.41761    0.07730    1.000
    Si3465   Si       0.56478    0.39329    0.00399    1.000
    Si3466   Si       0.65972    0.40103    0.03856    1.000
    Si3467   Si       0.73232    0.41014    0.01860    1.000
    N3468    N        0.63026    0.41408    0.06793    1.000
    N3469    N        0.64390    0.40351    0.99767    1.000
    N3470    N        0.67492    0.39251    0.12301    1.000
    N3471    N        0.58675    0.40996    0.19699    1.000
    Si3472   Si       0.59954    0.41326    0.23804    1.000
    N3473    N        0.51890    0.38922    0.20227    1.000
    Si3474   Si       0.55546    0.38491    0.18019    1.000
    N3475    N        0.55316    0.41097    0.14360    1.000
    N3476    N        0.61170    0.39098    0.12894    1.000
    N3477    N        0.65356    0.36655    0.18078    1.000
    N3478    N        0.64295    0.40681    0.23142    1.000
    N3479    N        0.70258    0.41293    0.20481    1.000
    Si3480   Si       0.70854    0.36478    0.12814    1.000
    Si3481   Si       0.66044    0.40693    0.19144    1.000
    Si3482   Si       0.57194    0.38419    0.34850    1.000
    N3483    N        0.50553    0.37995    0.29057    1.000
    N3484    N        0.59983    0.38151    0.26606    1.000
    N3485    N        0.53822    0.41267    0.34120    1.000
    N3486    N        0.60076    0.41598    0.34795    1.000
    Si3487   Si       0.52395    0.41786    0.29905    1.000
    Si3488   Si       0.64528    0.37365    0.26896    1.000
    N3489    N        0.68262    0.39464    0.27841    1.000
    N3490    N        0.71787    0.40997    0.34848    1.000
    N3491    N        0.60693    0.41647    0.44462    1.000
    N3492    N        0.55513    0.40707    0.48752    1.000
    Si3493   Si       0.60903    0.37448    0.45642    1.000
    N3494    N        0.54855    0.41085    0.41286    1.000
    Si3495   Si       0.51222    0.41094    0.49053    1.000
    Si3496   Si       0.54352    0.36679    0.41434    1.000
    N3497    N        0.49535    0.37408    0.47738    1.000
    N3498    N        0.70957    0.37939    0.42020    1.000
    Si3499   Si       0.71291    0.41478    0.45481    1.000
    N3500    N        0.67259    0.42132    0.44505    1.000
    Si3501   Si       0.66683    0.38470    0.42174    1.000
    N3502    N        0.66072    0.39115    0.37744    1.000
    Si3503   Si       0.70469    0.37832    0.37539    1.000
    N3504    N        0.56664    0.38677    0.55897    1.000
    Si3505   Si       0.56932    0.37654    0.51496    1.000
    N3506    N        0.53534    0.37336    0.61084    1.000
    Si3507   Si       0.60488    0.41076    0.56696    1.000
    Si3508   Si       0.51543    0.39826    0.56708    1.000
    N3509    N        0.60900    0.36598    0.49962    1.000
    Si3510   Si       0.67226    0.39202    0.57857    1.000
    N3511    N        0.63407    0.37958    0.56195    1.000
    Si3512   Si       0.73234    0.37103    0.52372    1.000
    N3513    N        0.70434    0.36687    0.56052    1.000
    N3514    N        0.71487    0.40436    0.49830    1.000
    N3515    N        0.66560    0.38631    0.62194    1.000
    N3516    N        0.54532    0.41229    0.65907    1.000
    Si3517   Si       0.50942    0.40302    0.63369    1.000
    N3518    N        0.57383    0.39725    0.71943    1.000
    N3519    N        0.50283    0.38524    0.72561    1.000
    Si3520   Si       0.53721    0.38752    0.69771    1.000
    Si3521   Si       0.56936    0.37758    0.64154    1.000
    Si3522   Si       0.60485    0.41304    0.69431    1.000
    N3523    N        0.61125    0.39213    0.65629    1.000
    Si3524   Si       0.73133    0.41615    0.65102    1.000
    N3525    N        0.69938    0.40366    0.68006    1.000
    N3526    N        0.67791    0.36743    0.73962    1.000
    N3527    N        0.64042    0.41444    0.72009    1.000
    Si3528   Si       0.52273    0.39458    0.81847    1.000
    Si3529   Si       0.58330    0.37078    0.85840    1.000
    N3530    N        0.50426    0.41031    0.85423    1.000
    N3531    N        0.60958    0.40517    0.84540    1.000
    Si3532   Si       0.58787    0.37011    0.74816    1.000
    N3533    N        0.60997    0.39385    0.77641    1.000
    N3534    N        0.68008    0.39441    0.85654    1.000
    Si3535   Si       0.69235    0.38665    0.81535    1.000
    Si3536   Si       0.65090    0.39783    0.75896    1.000
    N3537    N        0.73388    0.39262    0.80308    1.000
    N3538    N        0.67201    0.41770    0.79004    1.000
    Si3539   Si       0.64681    0.42232    0.86173    1.000
    Si3540   Si       0.51054    0.38254    0.88896    1.000
    N3541    N        0.55142    0.39818    0.96062    1.000
    Si3542   Si       0.56936    0.36961    0.93457    1.000
    N3543    N        0.49666    0.40769    0.92302    1.000
    N3544    N        0.55344    0.37749    0.89428    1.000
    N3545    N        0.61224    0.36859    0.93254    1.000
    N3546    N        0.73219    0.39579    0.90909    1.000
    Si3547   Si       0.70452    0.37195    0.88545    1.000
    Si3548   Si       0.62810    0.36899    0.97595    1.000
    N3549    N        0.72614    0.41496    0.97732    1.000
    Si3550   Si       0.53772    0.45838    0.07484    1.000
    Si3551   Si       0.60178    0.44368    0.05328    1.000
    N3552    N        0.58562    0.42705    0.01509    1.000
    N3553    N        0.52171    0.46841    0.11441    1.000
    N3554    N        0.60365    0.45083    0.11501    1.000
    Si3555   Si       0.50847    0.47695    0.00509    1.000
    N3556    N        0.57445    0.47722    0.06185    1.000
    N3557    N        0.67090    0.45737    0.09869    1.000
    Si3558   Si       0.70666    0.45551    0.07330    1.000
    N3559    N        0.63319    0.46921    0.02793    1.000
    Si3560   Si       0.64268    0.42268    0.11171    1.000
    N3561    N        0.69870    0.42319    0.04525    1.000
    N3562    N        0.51901    0.45667    0.18398    1.000
    Si3563   Si       0.51490    0.42802    0.21984    1.000
    Si3564   Si       0.59711    0.43173    0.15731    1.000
    Si3565   Si       0.51909    0.43613    0.14411    1.000
    N3566    N        0.63930    0.43801    0.16922    1.000
    Si3567   Si       0.68534    0.42078    0.24478    1.000
    Si3568   Si       0.57780    0.45363    0.34377    1.000
    Si3569   Si       0.55982    0.46642    0.26370    1.000
    N3570    N        0.53409    0.43247    0.25852    1.000
    N3571    N        0.60005    0.45178    0.25743    1.000
    N3572    N        0.55472    0.47151    0.30674    1.000
    N3573    N        0.49342    0.45063    0.30814    1.000
    N3574    N        0.66281    0.44188    0.32368    1.000
    Si3575   Si       0.64185    0.42469    0.35937    1.000
    Si3576   Si       0.69952    0.42343    0.30881    1.000
    N3577    N        0.67571    0.46347    0.24745    1.000
    N3578    N        0.73713    0.42977    0.28324    1.000
    Si3579   Si       0.56581    0.42922    0.44920    1.000
    N3580    N        0.50288    0.43699    0.45619    1.000
    N3581    N        0.54983    0.46382    0.37643    1.000
    N3582    N        0.56130    0.46958    0.45769    1.000
    Si3583   Si       0.52555    0.42848    0.38012    1.000
    N3584    N        0.63219    0.47940    0.45800    1.000
    N3585    N        0.64901    0.45539    0.39164    1.000
    Si3586   Si       0.63895    0.44366    0.43324    1.000
    Si3587   Si       0.51250    0.46787    0.53838    1.000
    N3588    N        0.60102    0.43819    0.53220    1.000
    N3589    N        0.51229    0.42410    0.53165    1.000
    N3590    N        0.50032    0.42499    0.59934    1.000
    N3591    N        0.54999    0.47811    0.55758    1.000
    N3592    N        0.62470    0.43415    0.59916    1.000
    Si3593   Si       0.65196    0.46409    0.58291    1.000
    Si3594   Si       0.70627    0.43862    0.52681    1.000
    N3595    N        0.67932    0.43541    0.56068    1.000
    N3596    N        0.69242    0.47132    0.50148    1.000
    Si3597   Si       0.55661    0.45459    0.66323    1.000
    N3598    N        0.59355    0.45417    0.68170    1.000
    N3599    N        0.52525    0.47091    0.68763    1.000
    N3600    N        0.73336    0.45171    0.62253    1.000
    N3601    N        0.69350    0.46310    0.72273    1.000
    N3602    N        0.65432    0.45059    0.66425    1.000
    Si3603   Si       0.73552    0.45913    0.72124    1.000
    Si3604   Si       0.67433    0.43214    0.69836    1.000
    Si3605   Si       0.64106    0.41904    0.63670    1.000
    N3606    N        0.59811    0.46449    0.81181    1.000
    Si3607   Si       0.55448    0.46760    0.82343    1.000
    N3608    N        0.49668    0.45598    0.75850    1.000
    N3609    N        0.55178    0.42507    0.80700    1.000
    N3610    N        0.54923    0.47600    0.86437    1.000
    Si3611   Si       0.59474    0.42097    0.80655    1.000
    Si3612   Si       0.68175    0.45838    0.80638    1.000
    N3613    N        0.66395    0.45988    0.84530    1.000
    N3614    N        0.72483    0.46524    0.80376    1.000
    N3615    N        0.50581    0.43586    0.98983    1.000
    N3616    N        0.53997    0.46548    0.93470    1.000
    N3617    N        0.60255    0.45845    0.95797    1.000
    Si3618   Si       0.52298    0.42831    0.94945    1.000
    N3619    N        0.71013    0.46325    0.92413    1.000
    Si3620   Si       0.70501    0.45117    0.96560    1.000
    N3621    N        0.63922    0.42927    0.90327    1.000
    N3622    N        0.66344    0.45893    0.96752    1.000
    Si3623   Si       0.62679    0.44343    0.99165    1.000
    Si3624   Si       0.63927    0.46116    0.93019    1.000
    Si3625   Si       0.56519    0.50962    0.03337    1.000
    N3626    N        0.60285    0.52925    0.01950    1.000
    Si3627   Si       0.49727    0.52173    0.06209    1.000
    N3628    N        0.49465    0.53169    0.10416    1.000
    N3629    N        0.58572    0.53149    0.11590    1.000
    N3630    N        0.51097    0.48260    0.04729    1.000
    Si3631   Si       0.71215    0.51360    0.01821    1.000
    N3632    N        0.70833    0.49707    0.06020    1.000
    Si3633   Si       0.64024    0.51171    0.03344    1.000
    Si3634   Si       0.66485    0.50113    0.10426    1.000
    N3635    N        0.67283    0.52600    0.00675    1.000
    N3636    N        0.64317    0.52430    0.07708    1.000
    Si3637   Si       0.72696    0.53177    0.08112    1.000
    N3638    N        0.69925    0.52339    0.11880    1.000
    Si3639   Si       0.59751    0.49067    0.12948    1.000
    Si3640   Si       0.54879    0.48853    0.19026    1.000
    N3641    N        0.53445    0.52010    0.16494    1.000
    Si3642   Si       0.50471    0.50443    0.13433    1.000
    N3643    N        0.55155    0.49517    0.23303    1.000
    Si3644   Si       0.51863    0.52257    0.24443    1.000
    N3645    N        0.58263    0.47442    0.16699    1.000
    N3646    N        0.62728    0.50018    0.21620    1.000
    N3647    N        0.63900    0.50233    0.14089    1.000
    N3648    N        0.68591    0.48886    0.18573    1.000
    Si3649   Si       0.71254    0.51183    0.15926    1.000
    Si3650   Si       0.64430    0.48158    0.17890    1.000
    Si3651   Si       0.70034    0.48902    0.22644    1.000
    N3652    N        0.70099    0.52908    0.24206    1.000
    Si3653   Si       0.51578    0.48775    0.31659    1.000
    N3654    N        0.50626    0.51146    0.35387    1.000
    N3655    N        0.49916    0.51470    0.28420    1.000
    Si3656   Si       0.60902    0.52228    0.36618    1.000
    N3657    N        0.61158    0.48144    0.34600    1.000
    Si3658   Si       0.65123    0.48507    0.32507    1.000
    N3659    N        0.63934    0.50104    0.28768    1.000
    N3660    N        0.67847    0.50691    0.34981    1.000
    Si3661   Si       0.63424    0.47593    0.25079    1.000
    N3662    N        0.52199    0.51247    0.42503    1.000
    Si3663   Si       0.53679    0.50435    0.38543    1.000
    Si3664   Si       0.59504    0.49837    0.46662    1.000
    N3665    N        0.57162    0.53080    0.38399    1.000
    Si3666   Si       0.51538    0.48053    0.45684    1.000
    Si3667   Si       0.66987    0.49363    0.39170    1.000
    N3668    N        0.67818    0.52907    0.48345    1.000
    N3669    N        0.69406    0.49030    0.42880    1.000
    N3670    N        0.63846    0.52365    0.39728    1.000
    Si3671   Si       0.67442    0.49156    0.46586    1.000
    Si3672   Si       0.73764    0.48205    0.42770    1.000
    Si3673   Si       0.54769    0.50652    0.59065    1.000
    N3674    N        0.58728    0.50399    0.50846    1.000
    N3675    N        0.51103    0.52992    0.60477    1.000
    N3676    N        0.50872    0.48960    0.49924    1.000
    N3677    N        0.57156    0.53925    0.56954    1.000
    Si3678   Si       0.59257    0.47871    0.54244    1.000
    N3679    N        0.62725    0.49248    0.56467    1.000
    N3680    N        0.67711    0.49027    0.60811    1.000
    Si3681   Si       0.71929    0.50446    0.61157    1.000
    Si3682   Si       0.70221    0.51294    0.51790    1.000
    Si3683   Si       0.64251    0.53403    0.56424    1.000
    Si3684   Si       0.51479    0.49646    0.65078    1.000
    N3685    N        0.53040    0.51727    0.74114    1.000
    Si3686   Si       0.50756    0.48398    0.72515    1.000
    N3687    N        0.51908    0.53438    0.67043    1.000
    N3688    N        0.55041    0.48318    0.62862    1.000
    Si3689   Si       0.61163    0.53839    0.73173    1.000
    N3690    N        0.63418    0.50427    0.71817    1.000
    Si3691   Si       0.62786    0.48243    0.68059    1.000
    Si3692   Si       0.66149    0.52563    0.62926    1.000
    Si3693   Si       0.67005    0.49424    0.74114    1.000
    N3694    N        0.62178    0.51332    0.65186    1.000
    N3695    N        0.70051    0.52489    0.74653    1.000
    N3696    N        0.53192    0.50033    0.80297    1.000
    N3697    N        0.59416    0.52622    0.77141    1.000
    Si3698   Si       0.54990    0.53114    0.77657    1.000
    Si3699   Si       0.49260    0.48525    0.79271    1.000
    Si3700   Si       0.61959    0.50143    0.79853    1.000
    N3701    N        0.63488    0.52006    0.83555    1.000
    Si3702   Si       0.65603    0.49816    0.86724    1.000
    N3703    N        0.65749    0.48714    0.78210    1.000
    N3704    N        0.69848    0.50892    0.87171    1.000
    N3705    N        0.58371    0.53095    0.94855    1.000
    N3706    N        0.52086    0.52432    0.91584    1.000
    Si3707   Si       0.56998    0.48690    0.95925    1.000
    Si3708   Si       0.52358    0.48341    0.89805    1.000
    N3709    N        0.54791    0.49630    0.99615    1.000
    Si3710   Si       0.61719    0.53740    0.91588    1.000
    N3711    N        0.63356    0.49760    0.90459    1.000
    N3712    N        0.72420    0.48114    0.99330    1.000
    Si3713   Si       0.72844    0.48281    0.89124    1.000
    Si3714   Si       0.52863    0.57090    0.03033    1.000
    Si3715   Si       0.55691    0.57189    0.08572    1.000
    N3716    N        0.59798    0.58652    0.08064    1.000
    N3717    N        0.49276    0.54770    0.02679    1.000
    N3718    N        0.54506    0.53855    0.05891    1.000
    Si3719   Si       0.62111    0.55466    0.10024    1.000
    Si3720   Si       0.72518    0.58816    0.04304    1.000
    N3721    N        0.71630    0.57442    0.08852    1.000
    N3722    N        0.68555    0.58592    0.02725    1.000
    N3723    N        0.73947    0.54469    0.03532    1.000
    N3724    N        0.54466    0.58165    0.12964    1.000
    Si3725   Si       0.56314    0.54990    0.14934    1.000
    N3726    N        0.59487    0.56098    0.17847    1.000
    Si3727   Si       0.61368    0.53983    0.21711    1.000
    N3728    N        0.53136    0.56436    0.24239    1.000
    N3729    N        0.71644    0.59076    0.23375    1.000
    N3730    N        0.65123    0.57328    0.12963    1.000
    Si3731   Si       0.69557    0.56666    0.13057    1.000
    N3732    N        0.65131    0.56241    0.21096    1.000
    Si3733   Si       0.63937    0.57332    0.17180    1.000
    Si3734   Si       0.68053    0.56832    0.24293    1.000
    N3735    N        0.70950    0.55378    0.17148    1.000
    Si3736   Si       0.58597    0.58215    0.32952    1.000
    Si3737   Si       0.56972    0.57976    0.25438    1.000
    N3738    N        0.59867    0.54743    0.25570    1.000
    N3739    N        0.61093    0.54788    0.33009    1.000
    N3740    N        0.55695    0.59084    0.35989    1.000
    N3741    N        0.67008    0.58230    0.34985    1.000
    N3742    N        0.65670    0.57133    0.28035    1.000
    Si3743   Si       0.69431    0.54641    0.35702    1.000
    Si3744   Si       0.62467    0.54063    0.28953    1.000
    N3745    N        0.73673    0.54891    0.34441    1.000
    N3746    N        0.54900    0.58212    0.43540    1.000
    Si3747   Si       0.51332    0.55477    0.43564    1.000
    Si3748   Si       0.57789    0.57647    0.46837    1.000
    Si3749   Si       0.57102    0.57245    0.39685    1.000
    N3750    N        0.60257    0.54191    0.45582    1.000
    N3751    N        0.61201    0.58397    0.39575    1.000
    N3752    N        0.49480    0.55725    0.47340    1.000
    N3753    N        0.73968    0.58018    0.46136    1.000
    N3754    N        0.66231    0.57913    0.44263    1.000
    N3755    N        0.71127    0.54920    0.39958    1.000
    Si3756   Si       0.63151    0.55562    0.42507    1.000
    Si3757   Si       0.70502    0.57715    0.43056    1.000
    Si3758   Si       0.52231    0.58060    0.53369    1.000
    N3759    N        0.55655    0.57026    0.50666    1.000
    Si3760   Si       0.56862    0.57835    0.59080    1.000
    N3761    N        0.49864    0.54412    0.53881    1.000
    Si3762   Si       0.58418    0.54297    0.52732    1.000
    N3763    N        0.53653    0.59798    0.56982    1.000
    N3764    N        0.70563    0.54669    0.61151    1.000
    Si3765   Si       0.71009    0.56858    0.57263    1.000
    N3766    N        0.64050    0.55341    0.60459    1.000
    N3767    N        0.62350    0.55835    0.53057    1.000
    Si3768   Si       0.66159    0.56077    0.50973    1.000
    N3769    N        0.68320    0.54290    0.54698    1.000
    Si3770   Si       0.63112    0.59226    0.62150    1.000
    Si3771   Si       0.52200    0.55812    0.63562    1.000
    N3772    N        0.56461    0.56373    0.63204    1.000
    N3773    N        0.51778    0.58296    0.71770    1.000
    Si3774   Si       0.59514    0.54712    0.65720    1.000
    N3775    N        0.57946    0.55298    0.70113    1.000
    Si3776   Si       0.53622    0.54576    0.70754    1.000
    N3777    N        0.50149    0.59577    0.63756    1.000
    Si3778   Si       0.59920    0.59711    0.70057    1.000
    Si3779   Si       0.66133    0.57442    0.68687    1.000
    N3780    N        0.67985    0.54301    0.66717    1.000
    Si3781   Si       0.72608    0.55335    0.65478    1.000
    N3782    N        0.63643    0.57318    0.72248    1.000
    N3783    N        0.73599    0.56641    0.69769    1.000
    N3784    N        0.62199    0.58160    0.66259    1.000
    N3785    N        0.53676    0.57443    0.78767    1.000
    Si3786   Si       0.51395    0.59340    0.82197    1.000
    N3787    N        0.60657    0.58699    0.82861    1.000
    N3788    N        0.53988    0.59265    0.85732    1.000
    Si3789   Si       0.58270    0.58793    0.86704    1.000
    Si3790   Si       0.70918    0.54600    0.85471    1.000
    N3791    N        0.67544    0.57295    0.85295    1.000
    Si3792   Si       0.64232    0.56270    0.82497    1.000
    N3793    N        0.65718    0.56568    0.78566    1.000
    Si3794   Si       0.69800    0.55540    0.77672    1.000
    N3795    N        0.71910    0.54628    0.81170    1.000
    N3796    N        0.70291    0.59120    0.75094    1.000
    Si3797   Si       0.65884    0.59464    0.75207    1.000
    N3798    N        0.58613    0.55080    0.88903    1.000
    Si3799   Si       0.59284    0.55579    0.98668    1.000
    Si3800   Si       0.55470    0.54955    0.92019    1.000
    N3801    N        0.53993    0.58911    0.92614    1.000
    N3802    N        0.55454    0.57227    0.99559    1.000
    N3803    N        0.62764    0.58363    0.98288    1.000
    N3804    N        0.63977    0.57191    0.91902    1.000
    N3805    N        0.69493    0.58074    0.95941    1.000
    Si3806   Si       0.66765    0.56663    0.99296    1.000
    Si3807   Si       0.73758    0.58944    0.96332    1.000
    Si3808   Si       0.51422    0.63814    0.07228    1.000
    N3809    N        0.52989    0.64944    0.11105    1.000
    N3810    N        0.53436    0.60203    0.06191    1.000
    Si3811   Si       0.60960    0.62918    0.07166    1.000
    N3812    N        0.70295    0.63556    0.06609    1.000
    Si3813   Si       0.67419    0.62985    0.03490    1.000
    N3814    N        0.63916    0.64020    0.10361    1.000
    N3815    N        0.63051    0.62826    0.03290    1.000
    Si3816   Si       0.72652    0.61835    0.09752    1.000
    Si3817   Si       0.58717    0.60657    0.18382    1.000
    Si3818   Si       0.52563    0.61882    0.14218    1.000
    N3819    N        0.55598    0.63336    0.17016    1.000
    N3820    N        0.58229    0.61318    0.22602    1.000
    N3821    N        0.49691    0.63723    0.21675    1.000
    Si3822   Si       0.57921    0.65500    0.24327    1.000
    Si3823   Si       0.50072    0.59750    0.23957    1.000
    N3824    N        0.69994    0.61247    0.13660    1.000
    Si3825   Si       0.63431    0.65671    0.19211    1.000
    Si3826   Si       0.65833    0.62783    0.13821    1.000
    Si3827   Si       0.73306    0.63160    0.15996    1.000
    N3828    N        0.62890    0.61651    0.17339    1.000
    Si3829   Si       0.53411    0.62800    0.36218    1.000
    Si3830   Si       0.58743    0.64179    0.31329    1.000
    N3831    N        0.49655    0.60908    0.28324    1.000
    Si3832   Si       0.51826    0.64641    0.29009    1.000
    N3833    N        0.54508    0.65044    0.32699    1.000
    N3834    N        0.56924    0.60088    0.29392    1.000
    N3835    N        0.49118    0.63016    0.35415    1.000
    N3836    N        0.61685    0.61382    0.33177    1.000
    N3837    N        0.67414    0.63675    0.29710    1.000
    Si3838   Si       0.65653    0.60014    0.31201    1.000
    Si3839   Si       0.53433    0.62484    0.43787    1.000
    N3840    N        0.54602    0.63994    0.40055    1.000
    N3841    N        0.60812    0.60778    0.47450    1.000
    N3842    N        0.49246    0.62410    0.44925    1.000
    N3843    N        0.55090    0.64898    0.46943    1.000
    Si3844   Si       0.58820    0.64247    0.48974    1.000
    N3845    N        0.70848    0.61818    0.41347    1.000
    Si3846   Si       0.63825    0.60672    0.36926    1.000
    N3847    N        0.66335    0.65313    0.45127    1.000
    Si3848   Si       0.68007    0.65226    0.41166    1.000
    N3849    N        0.64932    0.64494    0.38244    1.000
    Si3850   Si       0.64996    0.61482    0.46637    1.000
    N3851    N        0.60335    0.60483    0.59063    1.000
    Si3852   Si       0.60495    0.64470    0.57323    1.000
    N3853    N        0.49485    0.61016    0.51682    1.000
    N3854    N        0.58783    0.64818    0.53300    1.000
    Si3855   Si       0.67921    0.63986    0.59429    1.000
    Si3856   Si       0.69722    0.62907    0.52690    1.000
    N3857    N        0.69866    0.61165    0.56695    1.000
    N3858    N        0.66980    0.60414    0.50378    1.000
    N3859    N        0.64523    0.65517    0.57165    1.000
    N3860    N        0.56184    0.63404    0.67850    1.000
    Si3861   Si       0.51901    0.62508    0.66493    1.000
    N3862    N        0.58027    0.61176    0.74037    1.000
    N3863    N        0.52650    0.65660    0.63287    1.000
    N3864    N        0.68599    0.61148    0.69113    1.000
    N3865    N        0.66009    0.62265    0.62889    1.000
    Si3866   Si       0.65968    0.63921    0.67027    1.000
    N3867    N        0.62383    0.63634    0.69442    1.000
    Si3868   Si       0.72235    0.60616    0.71467    1.000
    N3869    N        0.50399    0.63587    0.82260    1.000
    Si3870   Si       0.60370    0.64065    0.76447    1.000
    N3871    N        0.59046    0.64910    0.80508    1.000
    N3872    N        0.51303    0.63366    0.75578    1.000
    Si3873   Si       0.54071    0.59843    0.75024    1.000
    Si3874   Si       0.61434    0.62914    0.83669    1.000
    N3875    N        0.64617    0.63375    0.76743    1.000
    N3876    N        0.65652    0.63626    0.83223    1.000
    Si3877   Si       0.68433    0.61456    0.85587    1.000
    N3878    N        0.72494    0.62328    0.84488    1.000
    Si3879   Si       0.51666    0.60069    0.89166    1.000
    N3880    N        0.51210    0.62640    0.98916    1.000
    Si3881   Si       0.54420    0.60423    0.96800    1.000
    N3882    N        0.60584    0.62358    0.87946    1.000
    N3883    N        0.57889    0.62978    0.96816    1.000
    N3884    N        0.49902    0.64034    0.89110    1.000
    Si3885   Si       0.66664    0.60294    0.93110    1.000
    N3886    N        0.68134    0.62595    0.89647    1.000
    Si3887   Si       0.61928    0.62753    0.98502    1.000
    N3888    N        0.64338    0.63774    0.94563    1.000
    Si3889   Si       0.73000    0.64985    0.98674    1.000
    Si3890   Si       0.61665    0.65224    0.91175    1.000
    N3891    N        0.68687    0.65122    0.99944    1.000
    Si3892   Si       0.55994    0.67945    0.10805    1.000
    N3893    N        0.51346    0.67410    0.04772    1.000
    Si3894   Si       0.50506    0.66699    0.00512    1.000
    N3895    N        0.58546    0.66669    0.07647    1.000
    Si3896   Si       0.62128    0.71258    0.99872    1.000
    N3897    N        0.58844    0.68097    0.14078    1.000
    Si3898   Si       0.56599    0.67531    0.17705    1.000
    N3899    N        0.59784    0.67349    0.20722    1.000
    Si3900   Si       0.50883    0.67545    0.22644    1.000
    N3901    N        0.53488    0.69713    0.19855    1.000
    N3902    N        0.68801    0.71134    0.19910    1.000
    Si3903   Si       0.62671    0.67967    0.12214    1.000
    N3904    N        0.72352    0.66290    0.18651    1.000
    Si3905   Si       0.72891    0.70710    0.17719    1.000
    N3906    N        0.65516    0.67162    0.15734    1.000
    Si3907   Si       0.69871    0.67269    0.21918    1.000
    N3908    N        0.66044    0.65689    0.22714    1.000
    N3909    N        0.59823    0.67633    0.33892    1.000
    Si3910   Si       0.54974    0.69416    0.34239    1.000
    N3911    N        0.51104    0.69691    0.36600    1.000
    N3912    N        0.53975    0.66518    0.25768    1.000
    N3913    N        0.60609    0.65564    0.27517    1.000
    N3914    N        0.73211    0.67464    0.32825    1.000
    N3915    N        0.65387    0.70144    0.28579    1.000
    N3916    N        0.72046    0.67777    0.25718    1.000
    Si3917   Si       0.72864    0.70029    0.36436    1.000
    Si3918   Si       0.65014    0.66126    0.26881    1.000
    Si3919   Si       0.71137    0.65715    0.29473    1.000
    Si3920   Si       0.62036    0.70622    0.31609    1.000
    N3921    N        0.49644    0.68692    0.48874    1.000
    Si3922   Si       0.53801    0.69039    0.47194    1.000
    N3923    N        0.53960    0.70571    0.43041    1.000
    N3924    N        0.61015    0.69583    0.41185    1.000
    Si3925   Si       0.50101    0.70997    0.40762    1.000
    N3926    N        0.61202    0.68171    0.48580    1.000
    N3927    N        0.73639    0.71106    0.48817    1.000
    N3928    N        0.71412    0.67799    0.39862    1.000
    Si3929   Si       0.65953    0.68190    0.48375    1.000
    Si3930   Si       0.61810    0.71192    0.44893    1.000
    Si3931   Si       0.62413    0.68091    0.37354    1.000
    Si3932   Si       0.59177    0.69084    0.52553    1.000
    N3933    N        0.58976    0.66795    0.60649    1.000
    Si3934   Si       0.50018    0.67598    0.60485    1.000
    Si3935   Si       0.51078    0.69550    0.53132    1.000
    N3936    N        0.49843    0.66734    0.56077    1.000
    N3937    N        0.55085    0.70595    0.51259    1.000
    Si3938   Si       0.60358    0.70850    0.59935    1.000
    N3939    N        0.68589    0.66910    0.51516    1.000
    Si3940   Si       0.65733    0.69839    0.56757    1.000
    N3941    N        0.69962    0.67428    0.60520    1.000
    Si3942   Si       0.71759    0.70017    0.52502    1.000
    N3943    N        0.64785    0.71187    0.60835    1.000
    Si3944   Si       0.58909    0.66120    0.70119    1.000
    Si3945   Si       0.56944    0.66133    0.64291    1.000
    N3946    N        0.59008    0.67861    0.74170    1.000
    N3947    N        0.58690    0.69178    0.67034    1.000
    N3948    N        0.67233    0.67999    0.66711    1.000
    Si3949   Si       0.68305    0.70375    0.63353    1.000
    N3950    N        0.52952    0.69339    0.79406    1.000
    N3951    N        0.55059    0.67772    0.85755    1.000
    Si3952   Si       0.56707    0.68359    0.81865    1.000
    Si3953   Si       0.50851    0.66460    0.85585    1.000
    Si3954   Si       0.50070    0.66264    0.78659    1.000
    N3955    N        0.71054    0.66733    0.79914    1.000
    N3956    N        0.65155    0.69521    0.78959    1.000
    Si3957   Si       0.72467    0.70373    0.78276    1.000
    Si3958   Si       0.73460    0.66368    0.83730    1.000
    N3959    N        0.71397    0.68619    0.86930    1.000
    Si3960   Si       0.66849    0.65772    0.79775    1.000
    Si3961   Si       0.56258    0.70365    0.89031    1.000
    N3962    N        0.58331    0.68114    0.92204    1.000
    N3963    N        0.53704    0.68871    0.98068    1.000
    Si3964   Si       0.57673    0.67340    0.96546    1.000
    Si3965   Si       0.68752    0.66840    0.89838    1.000
    N3966    N        0.61479    0.67278    0.98774    1.000
    N3967    N        0.69707    0.67860    0.93943    1.000
    Si3968   Si       0.72509    0.71024    0.94862    1.000
    N3969    N        0.64584    0.68248    0.89503    1.000
    Si3970   Si       0.66332    0.67151    0.96753    1.000
    N3971    N        0.54846    0.73123    0.03852    1.000
    Si3972   Si       0.58793    0.75010    0.04462    1.000
    N3973    N        0.58857    0.76018    0.08638    1.000
    N3974    N        0.53709    0.71550    0.10241    1.000
    Si3975   Si       0.51822    0.71403    0.06439    1.000
    N3976    N        0.62767    0.73126    0.03766    1.000
    Si3977   Si       0.62749    0.75626    0.10486    1.000
    Si3978   Si       0.66734    0.74338    0.05101    1.000
    Si3979   Si       0.72125    0.73368    0.09919    1.000
    N3980    N        0.69729    0.71883    0.06680    1.000
    N3981    N        0.64235    0.71978    0.11817    1.000
    N3982    N        0.68121    0.76969    0.01971    1.000
    N3983    N        0.65831    0.77305    0.08112    1.000
    Si3984   Si       0.60383    0.76803    0.17171    1.000
    N3985    N        0.51187    0.76742    0.20647    1.000
    N3986    N        0.49736    0.75115    0.14225    1.000
    N3987    N        0.56517    0.74734    0.16485    1.000
    N3988    N        0.57436    0.74536    0.23705    1.000
    Si3989   Si       0.54664    0.73984    0.20509    1.000
    Si3990   Si       0.53873    0.75027    0.12920    1.000
    Si3991   Si       0.66979    0.74936    0.20923    1.000
    N3992    N        0.64566    0.75790    0.24364    1.000
    N3993    N        0.70950    0.72146    0.14036    1.000
    N3994    N        0.63906    0.74307    0.17746    1.000
    Si3995   Si       0.66697    0.71553    0.15534    1.000
    Si3996   Si       0.50932    0.74706    0.30909    1.000
    N3997    N        0.59977    0.74149    0.30177    1.000
    Si3998   Si       0.56249    0.74241    0.27948    1.000
    N3999    N        0.56706    0.72660    0.36632    1.000
    N4000    N        0.52505    0.76760    0.27385    1.000
    Si4001   Si       0.56285    0.76913    0.35751    1.000
    N4002    N        0.54042    0.71672    0.30544    1.000
    Si4003   Si       0.66801    0.74229    0.27914    1.000
    N4004    N        0.70795    0.74470    0.26305    1.000
    Si4005   Si       0.67005    0.74879    0.35512    1.000
    N4006    N        0.66071    0.76772    0.31391    1.000
    N4007    N        0.71089    0.74092    0.36412    1.000
    N4008    N        0.64745    0.71075    0.35167    1.000
    Si4009   Si       0.57165    0.73091    0.41073    1.000
    N4010    N        0.59112    0.74485    0.44567    1.000
    N4011    N        0.54462    0.77299    0.49188    1.000
    N4012    N        0.65663    0.72165    0.46756    1.000
    Si4013   Si       0.65661    0.76291    0.48161    1.000
    Si4014   Si       0.54499    0.74926    0.52762    1.000
    N4015    N        0.50877    0.73698    0.54818    1.000
    Si4016   Si       0.49859    0.75079    0.58791    1.000
    N4017    N        0.57280    0.76453    0.55691    1.000
    Si4018   Si       0.56527    0.77216    0.59850    1.000
    N4019    N        0.57844    0.73624    0.61956    1.000
    Si4020   Si       0.61258    0.75852    0.54320    1.000
    N4021    N        0.61591    0.76703    0.50165    1.000
    N4022    N        0.50197    0.71708    0.61537    1.000
    Si4023   Si       0.68013    0.76547    0.55450    1.000
    N4024    N        0.68955    0.72325    0.55327    1.000
    N4025    N        0.61342    0.71477    0.55594    1.000
    Si4026   Si       0.57936    0.73466    0.66270    1.000
    Si4027   Si       0.54035    0.76395    0.71552    1.000
    N4028    N        0.53838    0.74215    0.67763    1.000
    Si4029   Si       0.50010    0.72984    0.65819    1.000
    N4030    N        0.61237    0.75919    0.67745    1.000
    N4031    N        0.71048    0.73683    0.64154    1.000
    Si4032   Si       0.64118    0.76214    0.70935    1.000
    N4033    N        0.62577    0.73421    0.74059    1.000
    Si4034   Si       0.71674    0.74626    0.72091    1.000
    N4035    N        0.68357    0.76163    0.69784    1.000
    Si4036   Si       0.58332    0.74985    0.83231    1.000
    Si4037   Si       0.53187    0.73685    0.78760    1.000
    N4038    N        0.54519    0.76373    0.81963    1.000
    N4039    N        0.58819    0.72025    0.80092    1.000
    N4040    N        0.55405    0.74011    0.74887    1.000
    N4041    N        0.59339    0.72556    0.87040    1.000
    Si4042   Si       0.58960    0.71825    0.75674    1.000
    N4043    N        0.73045    0.73079    0.81782    1.000
    N4044    N        0.65981    0.73482    0.84678    1.000
    Si4045   Si       0.65885    0.73100    0.76822    1.000
    Si4046   Si       0.70490    0.72557    0.85292    1.000
    N4047    N        0.69890    0.72337    0.75321    1.000
    N4048    N        0.66107    0.76935    0.78801    1.000
    Si4049   Si       0.65276    0.77483    0.83052    1.000
    N4050    N        0.52664    0.72039    0.90556    1.000
    Si4051   Si       0.53772    0.75671    0.92854    1.000
    N4052    N        0.52310    0.75490    0.97065    1.000
    N4053    N        0.58746    0.73379    0.98422    1.000
    Si4054   Si       0.54415    0.72792    0.99519    1.000
    Si4055   Si       0.67142    0.75445    0.97887    1.000
    N4056    N        0.71498    0.75854    0.87889    1.000
    Si4057   Si       0.63600    0.72223    0.88027    1.000
    N4058    N        0.64816    0.75437    0.90758    1.000
    N4059    N        0.71137    0.75087    0.95901    1.000
    N4060    N        0.65931    0.71315    0.97965    1.000
    Si4061   Si       0.58279    0.80003    0.10744    1.000
    N4062    N        0.58548    0.78602    0.02029    1.000
    Si4063   Si       0.50664    0.81812    0.11501    1.000
    Si4064   Si       0.58441    0.83090    0.01376    1.000
    N4065    N        0.54201    0.79410    0.12069    1.000
    Si4066   Si       0.68724    0.80435    0.09112    1.000
    Si4067   Si       0.69475    0.81064    0.01227    1.000
    N4068    N        0.70012    0.82765    0.05281    1.000
    N4069    N        0.72330    0.77656    0.09342    1.000
    N4070    N        0.73487    0.80500    0.99574    1.000
    N4071    N        0.60396    0.79789    0.20459    1.000
    Si4072   Si       0.50378    0.78825    0.24255    1.000
    Si4073   Si       0.60661    0.77477    0.24168    1.000
    N4074    N        0.50786    0.83037    0.24572    1.000
    N4075    N        0.61424    0.78988    0.13436    1.000
    N4076    N        0.69896    0.78171    0.20651    1.000
    Si4077   Si       0.64694    0.82057    0.13581    1.000
    N4078    N        0.68601    0.80191    0.13804    1.000
    Si4079   Si       0.71090    0.80654    0.17244    1.000
    N4080    N        0.59617    0.79433    0.34609    1.000
    N4081    N        0.60103    0.80174    0.27482    1.000
    Si4082   Si       0.49684    0.80968    0.34027    1.000
    N4083    N        0.52230    0.77358    0.34064    1.000
    Si4084   Si       0.61669    0.78055    0.30974    1.000
    Si4085   Si       0.68629    0.80526    0.31493    1.000
    N4086    N        0.70065    0.81207    0.27615    1.000
    N4087    N        0.72011    0.80312    0.33945    1.000
    Si4088   Si       0.63132    0.81475    0.36534    1.000
    Si4089   Si       0.71592    0.78668    0.24714    1.000
    N4090    N        0.55298    0.77320    0.39973    1.000
    N4091    N        0.48845    0.81589    0.38330    1.000
    Si4092   Si       0.51200    0.78800    0.40844    1.000
    N4093    N        0.52611    0.81655    0.43976    1.000
    Si4094   Si       0.51439    0.80327    0.48002    1.000
    N4095    N        0.59170    0.81828    0.45953    1.000
    Si4096   Si       0.58159    0.77618    0.47150    1.000
    N4097    N        0.71328    0.79763    0.40552    1.000
    Si4098   Si       0.73066    0.77841    0.37138    1.000
    Si4099   Si       0.66990    0.79849    0.41323    1.000
    N4100    N        0.65514    0.79498    0.45330    1.000
    Si4101   Si       0.73440    0.81748    0.43595    1.000
    N4102    N        0.65245    0.77723    0.38073    1.000
    N4103    N        0.73541    0.78723    0.46818    1.000
    N4104    N        0.52333    0.78314    0.60366    1.000
    N4105    N        0.58993    0.80020    0.61798    1.000
    Si4106   Si       0.66353    0.80621    0.59743    1.000
    N4107    N        0.64055    0.78493    0.56597    1.000
    N4108    N        0.70126    0.78941    0.58461    1.000
    Si4109   Si       0.71967    0.80354    0.50600    1.000
    N4110    N        0.68346    0.77713    0.51323    1.000
    Si4111   Si       0.63195    0.82717    0.54769    1.000
    Si4112   Si       0.74122    0.80241    0.57884    1.000
    Si4113   Si       0.51214    0.81599    0.62838    1.000
    N4114    N        0.49939    0.78377    0.72339    1.000
    N4115    N        0.56138    0.80189    0.71633    1.000
    Si4116   Si       0.60102    0.82106    0.71835    1.000
    N4117    N        0.50824    0.82066    0.66986    1.000
    Si4118   Si       0.52315    0.82219    0.70972    1.000
    N4119    N        0.61229    0.82914    0.67770    1.000
    N4120    N        0.65895    0.79134    0.63677    1.000
    Si4121   Si       0.61737    0.79375    0.65001    1.000
    Si4122   Si       0.69799    0.77654    0.65805    1.000
    N4123    N        0.72979    0.80538    0.65701    1.000
    N4124    N        0.63664    0.79931    0.73122    1.000
    Si4125   Si       0.53566    0.80586    0.81326    1.000
    N4126    N        0.50594    0.81608    0.78130    1.000
    N4127    N        0.61108    0.78175    0.83628    1.000
    N4128    N        0.51519    0.82938    0.84747    1.000
    Si4129   Si       0.66061    0.80647    0.76547    1.000
    N4130    N        0.67199    0.80651    0.85081    1.000
    N4131    N        0.70096    0.81937    0.75675    1.000
    N4132    N        0.73983    0.79966    0.81180    1.000
    Si4133   Si       0.74121    0.80425    0.76745    1.000
    N4134    N        0.57672    0.77644    0.93181    1.000
    Si4135   Si       0.58149    0.81878    0.92861    1.000
    N4136    N        0.51602    0.78876    0.91195    1.000
    Si4137   Si       0.59414    0.77684    0.97689    1.000
    N4138    N        0.58416    0.82478    0.97051    1.000
    N4139    N        0.63727    0.77910    0.96686    1.000
    Si4140   Si       0.64543    0.79111    0.92614    1.000
    Si4141   Si       0.69765    0.79854    0.88456    1.000
    N4142    N        0.73019    0.82760    0.87564    1.000
    N4143    N        0.62048    0.82294    0.90953    1.000
    N4144    N        0.68570    0.80975    0.92394    1.000
    Si4145   Si       0.55256    0.86273    0.06940    1.000
    N4146    N        0.51606    0.85405    0.09204    1.000
    N4147    N        0.54744    0.84836    0.02966    1.000
    Si4148   Si       0.50645    0.84846    0.01359    1.000
    N4149    N        0.58402    0.83645    0.08593    1.000
    N4150    N        0.62228    0.84350    0.02831    1.000
    Si4151   Si       0.62251    0.85220    0.07146    1.000
    Si4152   Si       0.71097    0.86777    0.04870    1.000
    Si4153   Si       0.64875    0.86562    0.00393    1.000
    N4154    N        0.67656    0.88581    0.02962    1.000
    N4155    N        0.71760    0.89089    0.08484    1.000
    N4156    N        0.65245    0.83447    0.09607    1.000
    Si4157   Si       0.52710    0.86859    0.17494    1.000
    N4158    N        0.56259    0.84904    0.18369    1.000
    Si4159   Si       0.60229    0.83990    0.19687    1.000
    N4160    N        0.49974    0.83912    0.15447    1.000
    N4161    N        0.50760    0.88741    0.20856    1.000
    N4162    N        0.61340    0.85993    0.23458    1.000
    N4163    N        0.63692    0.84598    0.16879    1.000
    N4164    N        0.70800    0.84997    0.18292    1.000
    Si4165   Si       0.67143    0.87354    0.17591    1.000
    N4166    N        0.55761    0.86762    0.27614    1.000
    N4167    N        0.51450    0.84629    0.32245    1.000
    Si4168   Si       0.59608    0.84533    0.27187    1.000
    Si4169   Si       0.51469    0.85393    0.28011    1.000
    Si4170   Si       0.52418    0.88371    0.34284    1.000
    N4171    N        0.61900    0.87530    0.29519    1.000
    Si4172   Si       0.65933    0.87160    0.31277    1.000
    Si4173   Si       0.71729    0.85421    0.27513    1.000
    N4174    N        0.67871    0.87477    0.27283    1.000
    N4175    N        0.73637    0.86143    0.31344    1.000
    N4176    N        0.65445    0.83253    0.33304    1.000
    Si4177   Si       0.64353    0.88904    0.25204    1.000
    N4178    N        0.50969    0.88040    0.38393    1.000
    N4179    N        0.54743    0.87938    0.44841    1.000
    N4180    N        0.57847    0.85258    0.39958    1.000
    Si4181   Si       0.56231    0.84087    0.43901    1.000
    N4182    N        0.63386    0.87364    0.45296    1.000
    N4183    N        0.71016    0.85414    0.44121    1.000
    Si4184   Si       0.64581    0.87723    0.41140    1.000
    N4185    N        0.64809    0.83592    0.39951    1.000
    Si4186   Si       0.63431    0.83093    0.46459    1.000
    Si4187   Si       0.51066    0.86816    0.59281    1.000
    Si4188   Si       0.56121    0.85409    0.53308    1.000
    N4189    N        0.52961    0.87309    0.55607    1.000
    Si4190   Si       0.58043    0.84158    0.60411    1.000
    N4191    N        0.58181    0.88223    0.50662    1.000
    Si4192   Si       0.49842    0.86803    0.52068    1.000
    N4193    N        0.59037    0.83700    0.55999    1.000
    N4194    N        0.54114    0.84923    0.61773    1.000
    N4195    N        0.52744    0.83425    0.50922    1.000
    N4196    N        0.65842    0.84818    0.57648    1.000
    Si4197   Si       0.69596    0.85875    0.55488    1.000
    N4198    N        0.71054    0.84482    0.51543    1.000
    N4199    N        0.63873    0.84400    0.50776    1.000
    Si4200   Si       0.64235    0.88055    0.60304    1.000
    Si4201   Si       0.72746    0.88504    0.50415    1.000
    N4202    N        0.73403    0.84479    0.57589    1.000
    Si4203   Si       0.62445    0.88457    0.49432    1.000
    N4204    N        0.60158    0.87476    0.62379    1.000
    N4205    N        0.51570    0.86069    0.72840    1.000
    N4206    N        0.59856    0.85639    0.74348    1.000
    Si4207   Si       0.62652    0.86545    0.66224    1.000
    Si4208   Si       0.71174    0.85544    0.73387    1.000
    N4209    N        0.66290    0.86932    0.63942    1.000
    N4210    N        0.73378    0.88268    0.65640    1.000
    N4211    N        0.68433    0.87608    0.70501    1.000
    Si4212   Si       0.60203    0.85446    0.78766    1.000
    Si4213   Si       0.53810    0.86487    0.82891    1.000
    N4214    N        0.51078    0.88117    0.79889    1.000
    Si4215   Si       0.49499    0.85556    0.76669    1.000
    N4216    N        0.56680    0.83749    0.80800    1.000
    N4217    N        0.56095    0.88609    0.85696    1.000
    N4218    N        0.63487    0.86853    0.85441    1.000
    N4219    N        0.69945    0.86320    0.82431    1.000
    Si4220   Si       0.66151    0.84414    0.83207    1.000
    Si4221   Si       0.73465    0.83758    0.83335    1.000
    N4222    N        0.64182    0.83745    0.79333    1.000
    N4223    N        0.70954    0.88944    0.76233    1.000
    N4224    N        0.50021    0.87347    0.90143    1.000
    N4225    N        0.50829    0.85813    0.97242    1.000
    N4226    N        0.55372    0.84168    0.90644    1.000
    Si4227   Si       0.55916    0.88329    0.90098    1.000
    Si4228   Si       0.51266    0.83075    0.89428    1.000
    N4229    N        0.73209    0.86025    0.93629    1.000
    Si4230   Si       0.69095    0.84786    0.94447    1.000
    Si4231   Si       0.63040    0.86317    0.89833    1.000
    N4232    N        0.62512    0.89208    0.98036    1.000
    N4233    N        0.66681    0.87532    0.92002    1.000
    N4234    N        0.67801    0.83887    0.98380    1.000
    N4235    N        0.54391    0.90552    0.07320    1.000
    Si4236   Si       0.54508    0.94398    0.05707    1.000
    N4237    N        0.52515    0.94489    0.01803    1.000
    Si4238   Si       0.51605    0.89612    0.10589    1.000
    Si4239   Si       0.62106    0.93524    0.07619    1.000
    Si4240   Si       0.68014    0.92888    0.02845    1.000
    N4241    N        0.72241    0.93539    0.01798    1.000
    N4242    N        0.61979    0.89395    0.07693    1.000
    N4243    N        0.66461    0.94464    0.06466    1.000
    Si4244   Si       0.70477    0.91696    0.11773    1.000
    N4245    N        0.65606    0.94860    0.99899    1.000
    N4246    N        0.53326    0.90079    0.14466    1.000
    Si4247   Si       0.50197    0.93079    0.21936    1.000
    N4248    N        0.59788    0.91890    0.16322    1.000
    Si4249   Si       0.55666    0.93442    0.16245    1.000
    N4250    N        0.53766    0.94687    0.19903    1.000
    Si4251   Si       0.66624    0.94008    0.22228    1.000
    N4252    N        0.66610    0.89750    0.21240    1.000
    N4253    N        0.66973    0.90115    0.14076    1.000
    Si4254   Si       0.63721    0.92739    0.15143    1.000
    N4255    N        0.57515    0.93936    0.28205    1.000
    N4256    N        0.50651    0.91852    0.32512    1.000
    Si4257   Si       0.58198    0.89926    0.29876    1.000
    N4258    N        0.56755    0.89211    0.34014    1.000
    N4259    N        0.50111    0.94950    0.26107    1.000
    N4260    N        0.68360    0.89721    0.33826    1.000
    Si4261   Si       0.72649    0.90296    0.32292    1.000
    N4262    N        0.63557    0.93329    0.25282    1.000
    N4263    N        0.73693    0.91962    0.28372    1.000
    Si4264   Si       0.49393    0.93867    0.47947    1.000
    Si4265   Si       0.52872    0.90226    0.41676    1.000
    Si4266   Si       0.55459    0.90552    0.48366    1.000
    N4267    N        0.57898    0.93773    0.47007    1.000
    N4268    N        0.50018    0.92860    0.43715    1.000
    N4269    N        0.56361    0.92322    0.40115    1.000
    Si4270   Si       0.58593    0.89143    0.37904    1.000
    Si4271   Si       0.71212    0.89798    0.43877    1.000
    Si4272   Si       0.66626    0.92103    0.37108    1.000
    N4273    N        0.62741    0.90063    0.37912    1.000
    N4274    N        0.70113    0.91200    0.47961    1.000
    N4275    N        0.68107    0.90363    0.40896    1.000
    N4276    N        0.49831    0.90643    0.60884    1.000
    N4277    N        0.51257    0.90345    0.49733    1.000
    N4278    N        0.64026    0.92364    0.59978    1.000
    Si4279   Si       0.72197    0.92907    0.55803    1.000
    N4280    N        0.71434    0.91829    0.60052    1.000
    Si4281   Si       0.67971    0.93878    0.61277    1.000
    Si4282   Si       0.67943    0.93825    0.50792    1.000
    N4283    N        0.68933    0.90057    0.53989    1.000
    N4284    N        0.63728    0.92607    0.50554    1.000
    N4285    N        0.56322    0.91739    0.73559    1.000
    Si4286   Si       0.50579    0.92051    0.64958    1.000
    N4287    N        0.50263    0.92787    0.72850    1.000
    Si4288   Si       0.57561    0.90288    0.64939    1.000
    N4289    N        0.53679    0.90148    0.66973    1.000
    Si4290   Si       0.53030    0.89781    0.71290    1.000
    N4291    N        0.57473    0.94021    0.62661    1.000
    N4292    N        0.60566    0.89809    0.68322    1.000
    Si4293   Si       0.60116    0.89844    0.72658    1.000
    N4294    N        0.69204    0.94725    0.72412    1.000
    Si4295   Si       0.67961    0.90722    0.73852    1.000
    N4296    N        0.68104    0.93218    0.65648    1.000
    Si4297   Si       0.69174    0.89016    0.66390    1.000
    Si4298   Si       0.49466    0.92184    0.80741    1.000
    Si4299   Si       0.60282    0.89633    0.84905    1.000
    Si4300   Si       0.53255    0.94649    0.75058    1.000
    N4301    N        0.60252    0.89618    0.80312    1.000
    N4302    N        0.49365    0.92274    0.84986    1.000
    N4303    N        0.62019    0.93810    0.85483    1.000
    Si4304   Si       0.62922    0.92663    0.78529    1.000
    N4305    N        0.66781    0.92306    0.80461    1.000
    Si4306   Si       0.70570    0.90186    0.80259    1.000
    Si4307   Si       0.72719    0.93353    0.86640    1.000
    N4308    N        0.73241    0.92735    0.82424    1.000
    Si4309   Si       0.66140    0.94526    0.84195    1.000
    N4310    N        0.63700    0.91198    0.74318    1.000
    N4311    N        0.54119    0.90932    0.93141    1.000
    N4312    N        0.60152    0.89565    0.90179    1.000
    N4313    N        0.58502    0.94859    0.97353    1.000
    Si4314   Si       0.61306    0.93898    0.89707    1.000
    Si4315   Si       0.50354    0.88929    0.94336    1.000
    Si4316   Si       0.62524    0.93365    0.97192    1.000
    N4317    N        0.64358    0.94269    0.93014    1.000
    N4318    N        0.68412    0.92747    0.87383    1.000
    Si4319   Si       0.67776    0.91646    0.91526    1.000
    N4320    N        0.71434    0.93349    0.93144    1.000
    N4321    N        0.52267    0.97623    0.07974    1.000
    Si4322   Si       0.59454    0.99562    0.04935    1.000
    N4323    N        0.56486    0.00328    0.01816    1.000
    N4324    N        0.58771    0.95264    0.05487    1.000
    Si4325   Si       0.48491    0.96298    0.10200    1.000
    N4326    N        0.58538    0.00858    0.08779    1.000
    Si4327   Si       0.73768    0.97723    0.02330    1.000
    Si4328   Si       0.65914    0.98905    0.00874    1.000
    Si4329   Si       0.66877    0.97165    0.09741    1.000
    N4330    N        0.69760    0.99477    0.02526    1.000
    N4331    N        0.62939    0.95593    0.11577    1.000
    N4332    N        0.70484    0.96050    0.11842    1.000
    Si4333   Si       0.60043    0.98831    0.12536    1.000
    N4334    N        0.49527    0.97539    0.14220    1.000
    Si4335   Si       0.52785    0.00466    0.14997    1.000
    N4336    N        0.59851    0.97760    0.21732    1.000
    Si4337   Si       0.55495    0.98322    0.21640    1.000
    N4338    N        0.56186    0.97381    0.13985    1.000
    Si4339   Si       0.73329    0.97399    0.21909    1.000
    N4340    N        0.65318    0.95500    0.18379    1.000
    N4341    N        0.73621    0.96568    0.17780    1.000
    Si4342   Si       0.63108    0.99150    0.18980    1.000
    Si4343   Si       0.72160    0.98848    0.14617    1.000
    N4344    N        0.70008    0.95840    0.24256    1.000
    N4345    N        0.52646    0.97996    0.32249    1.000
    N4346    N        0.55037    0.99512    0.25695    1.000
    Si4347   Si       0.53677    0.96360    0.28418    1.000
    Si4348   Si       0.60442    0.96378    0.26016    1.000
    N4349    N        0.61408    0.00388    0.27464    1.000
    Si4350   Si       0.49460    0.95563    0.34563    1.000
    Si4351   Si       0.72357    0.95995    0.28103    1.000
    Si4352   Si       0.68210    0.99120    0.34270    1.000
    N4353    N        0.69595    0.96201    0.31401    1.000
    N4354    N        0.66035    0.96349    0.36995    1.000
    Si4355   Si       0.55817    0.98966    0.48126    1.000
    N4356    N        0.55814    0.98817    0.43638    1.000
    Si4357   Si       0.53347    0.00039    0.40317    1.000
    N4358    N        0.50793    0.97402    0.38352    1.000
    Si4359   Si       0.58181    0.95054    0.42790    1.000
    Si4360   Si       0.69067    0.00221    0.46472    1.000
    Si4361   Si       0.62370    0.95902    0.47977    1.000
    N4362    N        0.66481    0.97510    0.48430    1.000
    N4363    N        0.69222    0.99191    0.42241    1.000
    Si4364   Si       0.65047    0.98166    0.40949    1.000
    N4365    N        0.62423    0.96233    0.43474    1.000
    N4366    N        0.73000    0.00449    0.47887    1.000
    N4367    N        0.59965    0.98857    0.57217    1.000
    Si4368   Si       0.50793    0.98327    0.53431    1.000
    Si4369   Si       0.60839    0.96016    0.60556    1.000
    N4370    N        0.54399    0.00359    0.61209    1.000
    N4371    N        0.59893    0.99122    0.49793    1.000
    N4372    N        0.52027    0.96937    0.49539    1.000
    N4373    N        0.67967    0.97948    0.59506    1.000
    Si4374   Si       0.68643    0.99723    0.55614    1.000
    N4375    N        0.70320    0.96213    0.53845    1.000
    Si4376   Si       0.55165    0.97449    0.64188    1.000
    N4377    N        0.51095    0.96241    0.65269    1.000
    N4378    N        0.56857    0.99416    0.67543    1.000
    Si4379   Si       0.61201    0.00222    0.67186    1.000
    N4380    N        0.53218    0.98605    0.73629    1.000
    Si4381   Si       0.62764    0.98554    0.73973    1.000
    N4382    N        0.63605    0.97651    0.69817    1.000
    N4383    N        0.72874    0.00267    0.72126    1.000
    Si4384   Si       0.67678    0.96221    0.68563    1.000
    N4385    N        0.69506    0.99392    0.66338    1.000
    N4386    N        0.62867    0.98693    0.63393    1.000
    Si4387   Si       0.66668    0.00350    0.62871    1.000
    Si4388   Si       0.51362    0.99352    0.80654    1.000
    N4389    N        0.51491    0.99150    0.85187    1.000
    N4390    N        0.52308    0.95273    0.79279    1.000
    N4391    N        0.62262    0.96698    0.77964    1.000
    N4392    N        0.67209    0.98654    0.83301    1.000
    Si4393   Si       0.64725    0.99886    0.79856    1.000
    Si4394   Si       0.70372    0.98165    0.74866    1.000
    N4395    N        0.66532    0.00383    0.75613    1.000
    Si4396   Si       0.70650    0.00558    0.85150    1.000
    N4397    N        0.73789    0.96852    0.77197    1.000
    N4398    N        0.53022    0.97645    0.95939    1.000
    N4399    N        0.58014    0.96529    0.90903    1.000
    Si4400   Si       0.50417    0.99982    0.93375    1.000
    Si4401   Si       0.55370    0.97074    0.99464    1.000
    Si4402   Si       0.55834    0.94746    0.94048    1.000
    N4403    N        0.63394    0.00101    0.89972    1.000
    N4404    N        0.72641    0.97641    0.87686    1.000
    Si4405   Si       0.65728    0.98625    0.93539    1.000
    Si4406   Si       0.73107    0.97469    0.92026    1.000
    N4407    N        0.69816    0.99787    0.93549    1.000
    N4408    N        0.64557    0.00584    0.97112    1.000
    Si4409   Si       0.80919    0.04803    0.01190    1.000
    N4410    N        0.80240    0.02027    0.09283    1.000
    Si4411   Si       0.80983    0.06587    0.08734    1.000
    Si4412   Si       0.74935    0.06289    0.02993    1.000
    Si4413   Si       0.76068    0.01204    0.08273    1.000
    N4414    N        0.91844    0.03524    0.02575    1.000
    N4415    N        0.91807    0.04813    0.09309    1.000
    Si4416   Si       0.95520    0.05864    0.11144    1.000
    Si4417   Si       0.91325    0.01394    0.06457    1.000
    N4418    N        0.86717    0.04504    0.22242    1.000
    N4419    N        0.75217    0.01554    0.12727    1.000
    Si4420   Si       0.79393    0.02687    0.13583    1.000
    N4421    N        0.92503    0.02329    0.17813    1.000
    N4422    N        0.97214    0.02099    0.12886    1.000
    Si4423   Si       0.91004    0.04776    0.20995    1.000
    N4424    N        0.93730    0.04598    0.24256    1.000
    Si4425   Si       0.75009    0.01999    0.32677    1.000
    Si4426   Si       0.85688    0.02575    0.26012    1.000
    N4427    N        0.75946    0.06322    0.32448    1.000
    N4428    N        0.81900    0.01260    0.27556    1.000
    N4429    N        0.78964    0.01353    0.34617    1.000
    Si4430   Si       0.79215    0.06369    0.35529    1.000
    N4431    N        0.86572    0.05869    0.28848    1.000
    Si4432   Si       0.86791    0.04542    0.33042    1.000
    Si4433   Si       0.97244    0.02837    0.31971    1.000
    N4434    N        0.95954    0.02972    0.36367    1.000
    N4435    N        0.90210    0.06132    0.34787    1.000
    Si4436   Si       0.94598    0.00888    0.26407    1.000
    N4437    N        0.98795    0.01384    0.27936    1.000
    N4438    N        0.93266    0.00603    0.30650    1.000
    N4439    N        0.80839    0.00985    0.48172    1.000
    N4440    N        0.78860    0.05247    0.39911    1.000
    N4441    N        0.84981    0.04957    0.44637    1.000
    Si4442   Si       0.79454    0.00891    0.39191    1.000
    Si4443   Si       0.84038    0.00871    0.45418    1.000
    N4444    N        0.91718    0.04530    0.46992    1.000
    Si4445   Si       0.89161    0.05257    0.43415    1.000
    Si4446   Si       0.92997    0.05701    0.38292    1.000
    N4447    N        0.90784    0.02225    0.40581    1.000
    Si4448   Si       0.81694    0.02863    0.51936    1.000
    N4449    N        0.77623    0.02507    0.53197    1.000
    Si4450   Si       0.85748    0.03040    0.58282    1.000
    Si4451   Si       0.75422    0.03232    0.56779    1.000
    N4452    N        0.77167    0.01325    0.60310    1.000
    N4453    N        0.83912    0.00833    0.54931    1.000
    Si4454   Si       0.95957    0.05061    0.61179    1.000
    Si4455   Si       0.91970    0.03641    0.54831    1.000
    N4456    N        0.95389    0.05268    0.56930    1.000
    N4457    N        0.89973    0.01930    0.58051    1.000
    Si4458   Si       0.98880    0.06664    0.54487    1.000
    N4459    N        0.84637    0.02022    0.62473    1.000
    Si4460   Si       0.78261    0.04845    0.70340    1.000
    N4461    N        0.75645    0.03703    0.66973    1.000
    Si4462   Si       0.84335    0.05062    0.65400    1.000
    N4463    N        0.82563    0.04604    0.69328    1.000
    Si4464   Si       0.76975    0.04609    0.63017    1.000
    N4465    N        0.78690    0.02190    0.73734    1.000
    Si4466   Si       0.86219    0.03595    0.71326    1.000
    Si4467   Si       0.97665    0.06225    0.71992    1.000
    N4468    N        0.95306    0.00956    0.62804    1.000
    N4469    N        0.88858    0.03201    0.67987    1.000
    N4470    N        0.79483    0.04258    0.80229    1.000
    Si4471   Si       0.77809    0.01641    0.83390    1.000
    N4472    N        0.85229    0.01835    0.79021    1.000
    Si4473   Si       0.81281    0.01632    0.77257    1.000
    N4474    N        0.86608    0.03675    0.85261    1.000
    Si4475   Si       0.86650    0.04897    0.81339    1.000
    N4476    N        0.91079    0.04977    0.80894    1.000
    Si4477   Si       0.97632    0.04993    0.79541    1.000
    N4478    N        0.95628    0.05244    0.75817    1.000
    N4479    N        0.96406    0.01289    0.81742    1.000
    N4480    N        0.79184    0.01863    0.87356    1.000
    Si4481   Si       0.77554    0.05006    0.89926    1.000
    Si4482   Si       0.85037    0.03406    0.96017    1.000
    N4483    N        0.75021    0.03334    0.93164    1.000
    Si4484   Si       0.77247    0.01637    0.96655    1.000
    N4485    N        0.85603    0.05191    0.92206    1.000
    N4486    N        0.84225    0.06478    0.98857    1.000
    N4487    N        0.81343    0.01305    0.96219    1.000
    N4488    N        0.76885    0.05293    0.99287    1.000
    Si4489   Si       0.88618    0.04481    0.89196    1.000
    N4490    N        0.93360    0.02655    0.94926    1.000
    Si4491   Si       0.91762    0.01076    0.98867    1.000
    N4492    N        0.85190    0.07444    0.08764    1.000
    N4493    N        0.79145    0.06847    0.04783    1.000
    N4494    N        0.90487    0.10149    0.05110    1.000
    N4495    N        0.96708    0.08848    0.02017    1.000
    Si4496   Si       0.89331    0.08608    0.09194    1.000
    Si4497   Si       0.92531    0.07827    0.02025    1.000
    N4498    N        0.82786    0.10315    0.18652    1.000
    Si4499   Si       0.79177    0.09384    0.16532    1.000
    N4500    N        0.75730    0.06962    0.18053    1.000
    Si4501   Si       0.86063    0.08627    0.20886    1.000
    N4502    N        0.79821    0.06906    0.13091    1.000
    N4503    N        0.90174    0.08630    0.19027    1.000
    N4504    N        0.90134    0.11312    0.12391    1.000
    N4505    N        0.86347    0.11324    0.24307    1.000
    N4506    N        0.96109    0.08577    0.14579    1.000
    Si4507   Si       0.92642    0.10860    0.16028    1.000
    Si4508   Si       0.76526    0.08834    0.28829    1.000
    N4509    N        0.80427    0.09141    0.27141    1.000
    Si4510   Si       0.84419    0.09774    0.28036    1.000
    Si4511   Si       0.83662    0.11246    0.35210    1.000
    N4512    N        0.79314    0.10944    0.35784    1.000
    N4513    N        0.84738    0.12489    0.31229    1.000
    N4514    N        0.74251    0.07178    0.25488    1.000
    N4515    N        0.83594    0.06755    0.34919    1.000
    Si4516   Si       0.93123    0.08890    0.32785    1.000
    N4517    N        0.94918    0.09539    0.36626    1.000
    Si4518   Si       0.96566    0.07341    0.26059    1.000
    N4519    N        0.91682    0.12056    0.30277    1.000
    N4520    N        0.95636    0.06641    0.30203    1.000
    N4521    N        0.95769    0.11553    0.24994    1.000
    Si4522   Si       0.76446    0.07495    0.42538    1.000
    N4523    N        0.75562    0.11656    0.41413    1.000
    N4524    N        0.85126    0.11286    0.45617    1.000
    Si4525   Si       0.82661    0.08004    0.46934    1.000
    N4526    N        0.78331    0.08087    0.46556    1.000
    Si4527   Si       0.76847    0.10599    0.49947    1.000
    N4528    N        0.90992    0.08513    0.41433    1.000
    N4529    N        0.92738    0.11385    0.47448    1.000
    Si4530   Si       0.92559    0.12104    0.43228    1.000
    Si4531   Si       0.93085    0.07718    0.49533    1.000
    Si4532   Si       0.82843    0.09794    0.60535    1.000
    Si4533   Si       0.75524    0.10666    0.57932    1.000
    N4534    N        0.79770    0.11542    0.57728    1.000
    N4535    N        0.85292    0.07433    0.57849    1.000
    N4536    N        0.74595    0.09628    0.53687    1.000
    Si4537   Si       0.86225    0.08785    0.53758    1.000
    N4538    N        0.74549    0.06869    0.60044    1.000
    N4539    N        0.83221    0.06883    0.51166    1.000
    N4540    N        0.90227    0.07267    0.52795    1.000
    N4541    N        0.97312    0.06980    0.50534    1.000
    N4542    N        0.76712    0.08709    0.71936    1.000
    Si4543   Si       0.79560    0.11722    0.72711    1.000
    N4544    N        0.80683    0.06989    0.63292    1.000
    Si4545   Si       0.85016    0.12299    0.66298    1.000
    N4546    N        0.87628    0.06920    0.74080    1.000
    Si4547   Si       0.96291    0.12242    0.63997    1.000
    N4548    N        0.93593    0.07431    0.70258    1.000
    Si4549   Si       0.91109    0.06976    0.66522    1.000
    N4550    N        0.94109    0.08462    0.63565    1.000
    N4551    N        0.87008    0.08551    0.65477    1.000
    Si4552   Si       0.79713    0.08884    0.79886    1.000
    N4553    N        0.81739    0.10152    0.76205    1.000
    N4554    N        0.75455    0.09211    0.78660    1.000
    N4555    N        0.80228    0.11245    0.83622    1.000
    Si4556   Si       0.84549    0.11869    0.83963    1.000
    Si4557   Si       0.77322    0.11959    0.86725    1.000
    N4558    N        0.85640    0.09022    0.80905    1.000
    Si4559   Si       0.86084    0.10291    0.76561    1.000
    N4560    N        0.96851    0.08959    0.81596    1.000
    N4561    N        0.91344    0.10792    0.77521    1.000
    Si4562   Si       0.92421    0.09174    0.81388    1.000
    N4563    N        0.91359    0.11896    0.84726    1.000
    Si4564   Si       0.98195    0.12606    0.79115    1.000
    Si4565   Si       0.91976    0.07481    0.74512    1.000
    N4566    N        0.75350    0.07897    0.87631    1.000
    Si4567   Si       0.83749    0.08768    0.91324    1.000
    N4568    N        0.79319    0.07809    0.92859    1.000
    N4569    N        0.76467    0.11615    0.97071    1.000
    Si4570   Si       0.75472    0.07736    0.95499    1.000
    N4571    N        0.84679    0.11652    0.94660    1.000
    N4572    N        0.85867    0.10387    0.87971    1.000
    Si4573   Si       0.86609    0.10003    0.98271    1.000
    Si4574   Si       0.80050    0.12424    0.94698    1.000
    N4575    N        0.91719    0.07311    0.90086    1.000
    Si4576   Si       0.93268    0.06947    0.94224    1.000
    Si4577   Si       0.90219    0.11129    0.88960    1.000
    N4578    N        0.96825    0.09275    0.94607    1.000
    N4579    N        0.98014    0.12218    0.88055    1.000
    N4580    N        0.90681    0.08472    0.97796    1.000
    Si4581   Si       0.97761    0.11326    0.98524    1.000
    N4582    N        0.78651    0.14814    0.02912    1.000
    Si4583   Si       0.82372    0.15771    0.00713    1.000
    N4584    N        0.76748    0.14479    0.09558    1.000
    Si4585   Si       0.77789    0.17277    0.06421    1.000
    Si4586   Si       0.75098    0.13096    0.00994    1.000
    N4587    N        0.85599    0.12920    0.01290    1.000
    N4588    N        0.86856    0.15397    0.07903    1.000
    Si4589   Si       0.88601    0.13951    0.04263    1.000
    N4590    N        0.97608    0.16922    0.05282    1.000
    N4591    N        0.90787    0.17438    0.02830    1.000
    Si4592   Si       0.94992    0.17761    0.01876    1.000
    Si4593   Si       0.87660    0.15079    0.12171    1.000
    Si4594   Si       0.79502    0.16394    0.12481    1.000
    N4595    N        0.83637    0.15485    0.13827    1.000
    Si4596   Si       0.83219    0.14866    0.18226    1.000
    Si4597   Si       0.76574    0.16392    0.18434    1.000
    N4598    N        0.80200    0.16785    0.20857    1.000
    N4599    N        0.77455    0.13298    0.15454    1.000
    N4600    N        0.74423    0.13310    0.21374    1.000
    N4601    N        0.86450    0.17129    0.19974    1.000
    Si4602   Si       0.74303    0.12323    0.12412    1.000
    N4603    N        0.90328    0.18219    0.13641    1.000
    Si4604   Si       0.94248    0.17764    0.15653    1.000
    N4605    N        0.97167    0.16886    0.12604    1.000
    Si4606   Si       0.97126    0.13673    0.21343    1.000
    N4607    N        0.94171    0.14285    0.18093    1.000
    Si4608   Si       0.87384    0.15430    0.24067    1.000
    N4609    N        0.84321    0.17378    0.26655    1.000
    Si4610   Si       0.76652    0.16770    0.29793    1.000
    Si4611   Si       0.84068    0.16730    0.30899    1.000
    N4612    N        0.80085    0.17558    0.32398    1.000
    N4613    N        0.74919    0.12929    0.29299    1.000
    Si4614   Si       0.93856    0.14629    0.27577    1.000
    N4615    N        0.96432    0.17401    0.29602    1.000
    N4616    N        0.92963    0.16061    0.35971    1.000
    Si4617   Si       0.96307    0.18365    0.33775    1.000
    N4618    N        0.86722    0.18589    0.33591    1.000
    N4619    N        0.91340    0.16939    0.24819    1.000
    N4620    N        0.77797    0.17685    0.38530    1.000
    Si4621   Si       0.76407    0.13530    0.37609    1.000
    N4622    N        0.83662    0.17425    0.43571    1.000
    N4623    N        0.77221    0.16940    0.45491    1.000
    Si4624   Si       0.85928    0.13976    0.42467    1.000
    N4625    N        0.85911    0.13680    0.38080    1.000
    Si4626   Si       0.77432    0.18222    0.49687    1.000
    N4627    N        0.98545    0.14493    0.48954    1.000
    N4628    N        0.96652    0.13284    0.42120    1.000
    Si4629   Si       0.88945    0.16804    0.37016    1.000
    N4630    N        0.93152    0.18346    0.47670    1.000
    N4631    N        0.90059    0.15532    0.42760    1.000
    Si4632   Si       0.96035    0.13486    0.37807    1.000
    N4633    N        0.79155    0.14032    0.51195    1.000
    Si4634   Si       0.81354    0.14188    0.54744    1.000
    Si4635   Si       0.82123    0.17798    0.61487    1.000
    N4636    N        0.82537    0.17778    0.56973    1.000
    N4637    N        0.85561    0.13275    0.54031    1.000
    Si4638   Si       0.86823    0.17138    0.55734    1.000
    N4639    N        0.96018    0.14674    0.60434    1.000
    Si4640   Si       0.93668    0.16708    0.57488    1.000
    N4641    N        0.92758    0.14813    0.53721    1.000
    N4642    N        0.89634    0.17746    0.59261    1.000
    Si4643   Si       0.94160    0.14867    0.49790    1.000
    N4644    N        0.74129    0.14557    0.67262    1.000
    Si4645   Si       0.74159    0.16609    0.63307    1.000
    N4646    N        0.83514    0.13737    0.62675    1.000
    N4647    N        0.77609    0.15538    0.74092    1.000
    Si4648   Si       0.85639    0.15905    0.71181    1.000
    Si4649   Si       0.74876    0.16789    0.70940    1.000
    N4650    N        0.82673    0.13097    0.69780    1.000
    Si4651   Si       0.92302    0.16551    0.68303    1.000
    N4652    N        0.95868    0.14293    0.67744    1.000
    N4653    N        0.88382    0.14590    0.67875    1.000
    N4654    N        0.92141    0.17755    0.72537    1.000
    Si4655   Si       0.97545    0.13975    0.71688    1.000
    Si4656   Si       0.85775    0.17760    0.78288    1.000
    N4657    N        0.86160    0.15768    0.82447    1.000
    Si4658   Si       0.75146    0.18441    0.84074    1.000
    N4659    N        0.73588    0.14326    0.85507    1.000
    N4660    N        0.86716    0.14621    0.75164    1.000
    N4661    N        0.98104    0.15628    0.82254    1.000
    Si4662   Si       0.90486    0.15946    0.83559    1.000
    Si4663   Si       0.91840    0.14823    0.76135    1.000
    N4664    N        0.92169    0.17395    0.79863    1.000
    N4665    N        0.96088    0.13991    0.75761    1.000
    N4666    N        0.81320    0.16356    0.96528    1.000
    Si4667   Si       0.80060    0.17700    0.89599    1.000
    N4668    N        0.79113    0.13487    0.90581    1.000
    N4669    N        0.84267    0.17892    0.90399    1.000
    Si4670   Si       0.85704    0.15912    0.94176    1.000
    N4671    N        0.88502    0.18240    0.96660    1.000
    Si4672   Si       0.92370    0.16238    0.95297    1.000
    N4673    N        0.95169    0.14871    0.98475    1.000
    N4674    N        0.90256    0.13778    0.92432    1.000
    N4675    N        0.91057    0.18401    0.86974    1.000
    N4676    N        0.84068    0.19374    0.02596    1.000
    Si4677   Si       0.81494    0.22787    0.01045    1.000
    N4678    N        0.80963    0.19518    0.08666    1.000
    Si4679   Si       0.84989    0.19233    0.06935    1.000
    N4680    N        0.74871    0.20241    0.05594    1.000
    Si4681   Si       0.79753    0.23923    0.08706    1.000
    N4682    N        0.77844    0.21188    0.99721    1.000
    Si4683   Si       0.98236    0.19123    0.08982    1.000
    N4684    N        0.87823    0.22135    0.08590    1.000
    N4685    N        0.96378    0.21806    0.00289    1.000
    Si4686   Si       0.88009    0.19895    0.00600    1.000
    N4687    N        0.98653    0.23348    0.10329    1.000
    N4688    N        0.83948    0.22895    0.23179    1.000
    N4689    N        0.77927    0.19634    0.15024    1.000
    Si4690   Si       0.74879    0.22583    0.14697    1.000
    Si4691   Si       0.81217    0.19389    0.24267    1.000
    N4692    N        0.85639    0.23076    0.15716    1.000
    Si4693   Si       0.92012    0.21132    0.24416    1.000
    Si4694   Si       0.86282    0.21537    0.19620    1.000
    N4695    N        0.90218    0.22943    0.20725    1.000
    Si4696   Si       0.89078    0.22359    0.12783    1.000
    N4697    N        0.96104    0.21266    0.17661    1.000
    Si4698   Si       0.79168    0.20470    0.35549    1.000
    N4699    N        0.77482    0.19832    0.26921    1.000
    N4700    N        0.83657    0.23142    0.30321    1.000
    Si4701   Si       0.79301    0.23442    0.29213    1.000
    Si4702   Si       0.85768    0.22732    0.34170    1.000
    N4703    N        0.77527    0.23918    0.33147    1.000
    Si4704   Si       0.98754    0.19387    0.26549    1.000
    N4705    N        0.95483    0.22229    0.35387    1.000
    N4706    N        0.89904    0.22873    0.27657    1.000
    N4707    N        0.96188    0.22292    0.24479    1.000
    N4708    N        0.82732    0.22656    0.37188    1.000
    N4709    N        0.80587    0.22734    0.43578    1.000
    Si4710   Si       0.83703    0.20942    0.46239    1.000
    Si4711   Si       0.79641    0.18473    0.42363    1.000
    Si4712   Si       0.91985    0.23761    0.37473    1.000
    Si4713   Si       0.90714    0.19795    0.43706    1.000
    Si4714   Si       0.96427    0.20861    0.46583    1.000
    N4715    N        0.94276    0.23089    0.43594    1.000
    N4716    N        0.89686    0.20748    0.39294    1.000
    N4717    N        0.87721    0.22392    0.45595    1.000
    Si4718   Si       0.80892    0.20599    0.54295    1.000
    N4719    N        0.76681    0.19769    0.54028    1.000
    N4720    N        0.81755    0.20078    0.50169    1.000
    N4721    N        0.87703    0.21153    0.54115    1.000
    N4722    N        0.94420    0.20817    0.56115    1.000
    Si4723   Si       0.98217    0.20976    0.54085    1.000
    Si4724   Si       0.90924    0.23341    0.56339    1.000
    Si4725   Si       0.89060    0.20679    0.62533    1.000
    N4726    N        0.90016    0.24375    0.60567    1.000
    N4727    N        0.98281    0.22674    0.50141    1.000
    Si4728   Si       0.77578    0.22364    0.65268    1.000
    N4729    N        0.75557    0.20768    0.68799    1.000
    Si4730   Si       0.84481    0.23050    0.67016    1.000
    N4731    N        0.84802    0.20729    0.63297    1.000
    N4732    N        0.85567    0.20310    0.70693    1.000
    N4733    N        0.77909    0.18776    0.62739    1.000
    N4734    N        0.77492    0.22858    0.74390    1.000
    N4735    N        0.97848    0.23866    0.71357    1.000
    Si4736   Si       0.89298    0.20842    0.72988    1.000
    N4737    N        0.91702    0.20037    0.65918    1.000
    N4738    N        0.85171    0.22307    0.85231    1.000
    N4739    N        0.74849    0.19642    0.80029    1.000
    Si4740   Si       0.82719    0.19194    0.83153    1.000
    Si4741   Si       0.77745    0.19147    0.76715    1.000
    N4742    N        0.81530    0.18899    0.78993    1.000
    N4743    N        0.79167    0.18293    0.85520    1.000
    N4744    N        0.87621    0.21378    0.76931    1.000
    Si4745   Si       0.96216    0.19313    0.80271    1.000
    N4746    N        0.95502    0.23287    0.82384    1.000
    Si4747   Si       0.98294    0.23691    0.86086    1.000
    N4748    N        0.77047    0.19802    0.92238    1.000
    Si4749   Si       0.79382    0.20349    0.95814    1.000
    N4750    N        0.82722    0.23079    0.96580    1.000
    Si4751   Si       0.96006    0.22743    0.95947    1.000
    N4752    N        0.88060    0.24077    0.90962    1.000
    N4753    N        0.98605    0.19350    0.88303    1.000
    Si4754   Si       0.87338    0.20386    0.88375    1.000
    Si4755   Si       0.94347    0.19979    0.89137    1.000
    N4756    N        0.94742    0.19419    0.93532    1.000
    N4757    N        0.94425    0.24185    0.88777    1.000
    N4758    N        0.82030    0.26973    0.10889    1.000
    N4759    N        0.80542    0.25337    0.04518    1.000
    Si4760   Si       0.79612    0.29431    0.03012    1.000
    N4761    N        0.76122    0.24481    0.10726    1.000
    N4762    N        0.76716    0.30261    0.99922    1.000
    Si4763   Si       0.89813    0.25189    0.05948    1.000
    Si4764   Si       0.95482    0.26325    0.10943    1.000
    N4765    N        0.87921    0.28969    0.07633    1.000
    N4766    N        0.94181    0.25619    0.06680    1.000
    Si4767   Si       0.97139    0.25158    0.03499    1.000
    N4768    N        0.98684    0.28608    0.01488    1.000
    N4769    N        0.97512    0.30102    0.12239    1.000
    N4770    N        0.88764    0.24083    0.01660    1.000
    Si4771   Si       0.81891    0.26575    0.22316    1.000
    Si4772   Si       0.83242    0.26472    0.14895    1.000
    N4773    N        0.80385    0.26610    0.18257    1.000
    Si4774   Si       0.76902    0.29245    0.17280    1.000
    N4775    N        0.84458    0.29913    0.22313    1.000
    N4776    N        0.74963    0.30167    0.21644    1.000
    Si4777   Si       0.98072    0.25820    0.23207    1.000
    Si4778   Si       0.93386    0.24678    0.18091    1.000
    N4779    N        0.95039    0.27870    0.20748    1.000
    N4780    N        0.92357    0.25124    0.13809    1.000
    Si4781   Si       0.76712    0.27628    0.35209    1.000
    N4782    N        0.79266    0.26188    0.25764    1.000
    Si4783   Si       0.75391    0.27846    0.25322    1.000
    Si4784   Si       0.86020    0.24589    0.27147    1.000
    N4785    N        0.86761    0.28775    0.28582    1.000
    N4786    N        0.89153    0.25430    0.34483    1.000
    Si4787   Si       0.88233    0.29206    0.32657    1.000
    Si4788   Si       0.98040    0.25198    0.36996    1.000
    N4789    N        0.98903    0.28431    0.26858    1.000
    Si4790   Si       0.76143    0.27899    0.42838    1.000
    N4791    N        0.78474    0.27238    0.39105    1.000
    N4792    N        0.85253    0.27770    0.42032    1.000
    Si4793   Si       0.82152    0.25254    0.40450    1.000
    N4794    N        0.84700    0.27024    0.48985    1.000
    N4795    N        0.77849    0.29134    0.46664    1.000
    Si4796   Si       0.81612    0.29954    0.48775    1.000
    Si4797   Si       0.94514    0.27360    0.43422    1.000
    N4798    N        0.94459    0.27464    0.38853    1.000
    Si4799   Si       0.87480    0.26715    0.45617    1.000
    N4800    N        0.97950    0.28859    0.45683    1.000
    N4801    N        0.91252    0.29004    0.46002    1.000
    Si4802   Si       0.78904    0.27698    0.54835    1.000
    N4803    N        0.77714    0.28879    0.58786    1.000
    N4804    N        0.75426    0.26301    0.52699    1.000
    Si4805   Si       0.85772    0.24904    0.52701    1.000
    N4806    N        0.81992    0.24729    0.55071    1.000
    N4807    N        0.84457    0.29984    0.61022    1.000
    Si4808   Si       0.74590    0.29270    0.49760    1.000
    Si4809   Si       0.74827    0.28873    0.61853    1.000
    Si4810   Si       0.93841    0.26531    0.61386    1.000
    N4811    N        0.94709    0.27398    0.57386    1.000
    N4812    N        0.89326    0.27104    0.54129    1.000
    Si4813   Si       0.92467    0.30053    0.54812    1.000
    N4814    N        0.77375    0.28822    0.71595    1.000
    Si4815   Si       0.79349    0.29105    0.67677    1.000
    N4816    N        0.74478    0.25077    0.63579    1.000
    N4817    N        0.80546    0.25044    0.66758    1.000
    Si4818   Si       0.87734    0.27788    0.62588    1.000
    N4819    N        0.91391    0.30108    0.63031    1.000
    N4820    N        0.87273    0.26251    0.66658    1.000
    N4821    N        0.94408    0.28897    0.69193    1.000
    N4822    N        0.90738    0.25001    0.72879    1.000
    Si4823   Si       0.98453    0.26787    0.67864    1.000
    N4824    N        0.97262    0.25671    0.63606    1.000
    Si4825   Si       0.90181    0.27788    0.69396    1.000
    Si4826   Si       0.94857    0.26397    0.73029    1.000
    N4827    N        0.77246    0.27676    0.78446    1.000
    N4828    N        0.76783    0.28038    0.85770    1.000
    N4829    N        0.83078    0.28589    0.82747    1.000
    Si4830   Si       0.78852    0.29239    0.82217    1.000
    Si4831   Si       0.84870    0.26590    0.86275    1.000
    N4832    N        0.83781    0.27260    0.74665    1.000
    Si4833   Si       0.79487    0.26629    0.74876    1.000
    Si4834   Si       0.87436    0.25656    0.76360    1.000
    N4835    N        0.95967    0.27900    0.77009    1.000
    Si4836   Si       0.93678    0.27148    0.80846    1.000
    N4837    N        0.89347    0.27714    0.79588    1.000
    N4838    N        0.88227    0.29509    0.86084    1.000
    Si4839   Si       0.86818    0.30604    0.81912    1.000
    Si4840   Si       0.78725    0.29036    0.89580    1.000
    Si4841   Si       0.84642    0.25395    0.93457    1.000
    N4842    N        0.76030    0.28500    0.92849    1.000
    N4843    N        0.82339    0.26794    0.89967    1.000
    Si4844   Si       0.91787    0.26397    0.91171    1.000
    N4845    N        0.92832    0.25823    0.95378    1.000
    N4846    N        0.86424    0.28488    0.95982    1.000
    Si4847   Si       0.89786    0.26934    0.98422    1.000
    N4848    N        0.82902    0.33611    0.09620    1.000
    N4849    N        0.77617    0.31606    0.06413    1.000
    N4850    N        0.83516    0.30777    0.02010    1.000
    Si4851   Si       0.75833    0.35632    0.06420    1.000
    Si4852   Si       0.79907    0.30588    0.10020    1.000
    Si4853   Si       0.86479    0.31330    0.10839    1.000
    N4854    N        0.98332    0.34208    0.06507    1.000
    Si4855   Si       0.87203    0.31266    0.04030    1.000
    N4856    N        0.89271    0.34583    0.11239    1.000
    N4857    N        0.89270    0.35217    0.04389    1.000
    N4858    N        0.90311    0.30260    0.00971    1.000
    Si4859   Si       0.91013    0.34478    0.00102    1.000
    N4860    N        0.79598    0.33254    0.18654    1.000
    Si4861   Si       0.77335    0.33950    0.22405    1.000
    Si4862   Si       0.83843    0.32337    0.18532    1.000
    N4863    N        0.77262    0.31510    0.13291    1.000
    Si4864   Si       0.77860    0.35394    0.15062    1.000
    N4865    N        0.85563    0.30366    0.14982    1.000
    N4866    N        0.86354    0.35801    0.18615    1.000
    Si4867   Si       0.89608    0.35163    0.15550    1.000
    Si4868   Si       0.96596    0.33293    0.14919    1.000
    N4869    N        0.93010    0.33210    0.17280    1.000
    Si4870   Si       0.93928    0.32036    0.21292    1.000
    N4871    N        0.90845    0.32675    0.24043    1.000
    N4872    N        0.97339    0.34112    0.23680    1.000
    Si4873   Si       0.76131    0.32618    0.29865    1.000
    Si4874   Si       0.81719    0.33038    0.35296    1.000
    N4875    N        0.78826    0.33463    0.26562    1.000
    N4876    N        0.78211    0.31394    0.33489    1.000
    N4877    N        0.85882    0.35507    0.26624    1.000
    N4878    N        0.84890    0.30088    0.35250    1.000
    Si4879   Si       0.98841    0.32739    0.27486    1.000
    Si4880   Si       0.86971    0.31557    0.25376    1.000
    N4881    N        0.91780    0.31676    0.33149    1.000
    N4882    N        0.97373    0.34962    0.30895    1.000
    Si4883   Si       0.93209    0.35848    0.32291    1.000
    Si4884   Si       0.93106    0.31183    0.37409    1.000
    N4885    N        0.83107    0.33697    0.46666    1.000
    N4886    N        0.82546    0.34191    0.39598    1.000
    Si4887   Si       0.85791    0.31170    0.39510    1.000
    Si4888   Si       0.74785    0.35835    0.41825    1.000
    Si4889   Si       0.81986    0.36225    0.43234    1.000
    N4890    N        0.95828    0.35141    0.45859    1.000
    N4891    N        0.90009    0.35312    0.49463    1.000
    Si4892   Si       0.92986    0.32503    0.47818    1.000
    N4893    N        0.95203    0.35103    0.37716    1.000
    N4894    N        0.89762    0.32702    0.39660    1.000
    N4895    N        0.80374    0.31186    0.52758    1.000
    Si4896   Si       0.80635    0.31721    0.60862    1.000
    N4897    N        0.80271    0.35243    0.58480    1.000
    Si4898   Si       0.80626    0.35346    0.54054    1.000
    N4899    N        0.91620    0.34109    0.56796    1.000
    Si4900   Si       0.91823    0.34101    0.61197    1.000
    N4901    N        0.95000    0.31505    0.51681    1.000
    N4902    N        0.82316    0.32167    0.68829    1.000
    N4903    N        0.77572    0.31394    0.64350    1.000
    Si4904   Si       0.84488    0.30961    0.72349    1.000
    Si4905   Si       0.74826    0.32331    0.72390    1.000
    Si4906   Si       0.74222    0.34344    0.65077    1.000
    Si4907   Si       0.95493    0.32344    0.66604    1.000
    N4908    N        0.93670    0.35796    0.68728    1.000
    N4909    N        0.95924    0.34465    0.62676    1.000
    N4910    N        0.88758    0.31508    0.71030    1.000
    Si4911   Si       0.89886    0.35611    0.70836    1.000
    N4912    N        0.77469    0.33523    0.82194    1.000
    Si4913   Si       0.76935    0.35158    0.85924    1.000
    N4914    N        0.84000    0.34347    0.74942    1.000
    N4915    N        0.76691    0.35210    0.75166    1.000
    Si4916   Si       0.76342    0.36267    0.79218    1.000
    N4917    N        0.87010    0.34932    0.81278    1.000
    Si4918   Si       0.96940    0.33842    0.82061    1.000
    Si4919   Si       0.91609    0.32057    0.86520    1.000
    N4920    N        0.94240    0.30657    0.83279    1.000
    N4921    N        0.98166    0.35980    0.85596    1.000
    Si4922   Si       0.80869    0.35759    0.92299    1.000
    Si4923   Si       0.77069    0.31332    0.95843    1.000
    N4924    N        0.79173    0.33359    0.89278    1.000
    N4925    N        0.81161    0.32858    0.95455    1.000
    Si4926   Si       0.84422    0.31839    0.97838    1.000
    N4927    N        0.92839    0.30572    0.90416    1.000
    Si4928   Si       0.95596    0.32358    0.93151    1.000
    Si4929   Si       0.98426    0.31615    0.98463    1.000
    N4930    N        0.94594    0.33761    0.97165    1.000
    N4931    N        0.87535    0.34959    0.97310    1.000
    N4932    N        0.78673    0.38908    0.07493    1.000
    Si4933   Si       0.82284    0.37879    0.09856    1.000
    N4934    N        0.85765    0.40031    0.08460    1.000
    N4935    N        0.74234    0.36759    0.02557    1.000
    Si4936   Si       0.89449    0.37669    0.08025    1.000
    N4937    N        0.93099    0.40254    0.07390    1.000
    Si4938   Si       0.96845    0.37718    0.08336    1.000
    N4939    N        0.92586    0.38716    0.99791    1.000
    Si4940   Si       0.92704    0.41567    0.03077    1.000
    N4941    N        0.75437    0.37821    0.22773    1.000
    N4942    N        0.80633    0.38477    0.14008    1.000
    Si4943   Si       0.74102    0.40045    0.19256    1.000
    N4944    N        0.74020    0.37302    0.15875    1.000
    Si4945   Si       0.87219    0.40043    0.18872    1.000
    N4946    N        0.88948    0.40428    0.23205    1.000
    N4947    N        0.90112    0.39680    0.15642    1.000
    N4948    N        0.96152    0.36794    0.12514    1.000
    N4949    N        0.96075    0.39598    0.19228    1.000
    Si4950   Si       0.94452    0.39845    0.15095    1.000
    Si4951   Si       0.75761    0.39247    0.34021    1.000
    N4952    N        0.80146    0.40046    0.27515    1.000
    Si4953   Si       0.75789    0.39032    0.26924    1.000
    N4954    N        0.75109    0.36806    0.30439    1.000
    Si4955   Si       0.85749    0.39230    0.34046    1.000
    N4956    N        0.82838    0.36345    0.32608    1.000
    Si4957   Si       0.81929    0.36127    0.28273    1.000
    N4958    N        0.89662    0.37739    0.34419    1.000
    N4959    N        0.92468    0.38176    0.28651    1.000
    Si4960   Si       0.89784    0.36817    0.25564    1.000
    N4961    N        0.75518    0.36671    0.37648    1.000
    N4962    N        0.84713    0.41068    0.37795    1.000
    N4963    N        0.78081    0.37996    0.43548    1.000
    N4964    N        0.85036    0.39350    0.44567    1.000
    Si4965   Si       0.85969    0.36550    0.48310    1.000
    Si4966   Si       0.99032    0.36962    0.38919    1.000
    Si4967   Si       0.86811    0.41827    0.41440    1.000
    Si4968   Si       0.97136    0.39056    0.47700    1.000
    N4969    N        0.97908    0.40677    0.41372    1.000
    Si4970   Si       0.91175    0.36765    0.38480    1.000
    N4971    N        0.90941    0.40291    0.40746    1.000
    N4972    N        0.77373    0.37930    0.52733    1.000
    N4973    N        0.84121    0.37300    0.52363    1.000
    Si4974   Si       0.79022    0.38731    0.61149    1.000
    Si4975   Si       0.86083    0.41084    0.53598    1.000
    N4976    N        0.85853    0.41539    0.58233    1.000
    N4977    N        0.90743    0.40382    0.54326    1.000
    N4978    N        0.96475    0.38139    0.51929    1.000
    Si4979   Si       0.90167    0.40591    0.58863    1.000
    Si4980   Si       0.92562    0.36554    0.53146    1.000
    N4981    N        0.98468    0.40058    0.58787    1.000
    N4982    N        0.89469    0.37665    0.62063    1.000
    Si4983   Si       0.99018    0.37381    0.62274    1.000
    N4984    N        0.82360    0.38124    0.64092    1.000
    N4985    N        0.80239    0.38832    0.70855    1.000
    N4986    N        0.75315    0.38127    0.63281    1.000
    Si4987   Si       0.82792    0.36481    0.68147    1.000
    N4988    N        0.98882    0.39831    0.65641    1.000
    Si4989   Si       0.86355    0.39613    0.64544    1.000
    N4990    N        0.86948    0.37678    0.68435    1.000
    Si4991   Si       0.96149    0.39346    0.69007    1.000
    N4992    N        0.79934    0.38689    0.79288    1.000
    N4993    N        0.78286    0.39402    0.85992    1.000
    Si4994   Si       0.80828    0.41111    0.82663    1.000
    N4995    N        0.84932    0.41403    0.84506    1.000
    N4996    N        0.84644    0.40318    0.75359    1.000
    Si4997   Si       0.80892    0.37706    0.75079    1.000
    Si4998   Si       0.86818    0.36775    0.77175    1.000
    Si4999   Si       0.92812    0.39631    0.77729    1.000
    Si5000   Si       0.88269    0.38107    0.84095    1.000
    N5001    N        0.90030    0.40635    0.81020    1.000
    N5002    N        0.95968    0.36625    0.78578    1.000
    N5003    N        0.91471    0.36339    0.86413    1.000
    N5004    N        0.90455    0.37409    0.74839    1.000
    Si5005   Si       0.76378    0.41980    0.88865    1.000
    Si5006   Si       0.74269    0.38509    0.94901    1.000
    N5007    N        0.84668    0.41232    0.96763    1.000
    N5008    N        0.84478    0.38063    0.91134    1.000
    N5009    N        0.78574    0.38531    0.94567    1.000
    Si5010   Si       0.83981    0.41844    0.88877    1.000
    Si5011   Si       0.94952    0.37978    0.88277    1.000
    Si5012   Si       0.94409    0.38156    0.95769    1.000
    N5013    N        0.90952    0.39540    0.93576    1.000
    N5014    N        0.96631    0.36440    0.91935    1.000
    Si5015   Si       0.87055    0.38217    0.94614    1.000
    N5016    N        0.98002    0.41193    0.95807    1.000
    N5017    N        0.82133    0.45378    0.06579    1.000
    N5018    N        0.76329    0.43494    0.03291    1.000
    Si5019   Si       0.78301    0.43343    0.07119    1.000
    N5020    N        0.74774    0.45077    0.09419    1.000
    Si5021   Si       0.76281    0.46716    0.00292    1.000
    Si5022   Si       0.86263    0.43906    0.06509    1.000
    Si5023   Si       0.83255    0.47862    0.10330    1.000
    N5024    N        0.95912    0.44487    0.01985    1.000
    Si5025   Si       0.95458    0.43756    0.09281    1.000
    N5026    N        0.88733    0.42987    0.03187    1.000
    N5027    N        0.87609    0.46954    0.09603    1.000
    N5028    N        0.94547    0.47758    0.08113    1.000
    N5029    N        0.77209    0.42973    0.18356    1.000
    Si5030   Si       0.84220    0.47167    0.20016    1.000
    N5031    N        0.80345    0.45668    0.12753    1.000
    N5032    N        0.84326    0.43149    0.18224    1.000
    Si5033   Si       0.76458    0.47023    0.19387    1.000
    N5034    N        0.85726    0.46744    0.24028    1.000
    Si5035   Si       0.80689    0.42484    0.15745    1.000
    N5036    N        0.74137    0.47430    0.23067    1.000
    Si5037   Si       0.98870    0.46489    0.15350    1.000
    N5038    N        0.98638    0.46102    0.19753    1.000
    N5039    N        0.95736    0.43777    0.13522    1.000
    N5040    N        0.91987    0.46011    0.20783    1.000
    Si5041   Si       0.89342    0.44693    0.24224    1.000
    Si5042   Si       0.95468    0.43459    0.21151    1.000
    N5043    N        0.79979    0.46702    0.28016    1.000
    Si5044   Si       0.75687    0.46783    0.27165    1.000
    Si5045   Si       0.81124    0.43117    0.30204    1.000
    N5046    N        0.85146    0.42802    0.31552    1.000
    N5047    N        0.78974    0.42089    0.33948    1.000
    N5048    N        0.82684    0.48050    0.36410    1.000
    Si5049   Si       0.81283    0.43729    0.37054    1.000
    N5050    N        0.96304    0.43286    0.32712    1.000
    Si5051   Si       0.88085    0.46249    0.31689    1.000
    N5052    N        0.90670    0.45050    0.28350    1.000
    Si5053   Si       0.94717    0.46958    0.34025    1.000
    N5054    N        0.90695    0.46761    0.35111    1.000
    N5055    N        0.96645    0.42985    0.25497    1.000
    Si5056   Si       0.94043    0.42211    0.28909    1.000
    N5057    N        0.79628    0.43247    0.48108    1.000
    N5058    N        0.80456    0.44429    0.41337    1.000
    Si5059   Si       0.78111    0.42225    0.44229    1.000
    N5060    N        0.74220    0.44122    0.43937    1.000
    Si5061   Si       0.83167    0.45143    0.49646    1.000
    Si5062   Si       0.83090    0.47866    0.40684    1.000
    N5063    N        0.93795    0.42146    0.47158    1.000
    Si5064   Si       0.94312    0.42642    0.42648    1.000
    N5065    N        0.87114    0.46313    0.41519    1.000
    N5066    N        0.94102    0.46638    0.41089    1.000
    Si5067   Si       0.82511    0.44298    0.58198    1.000
    N5068    N        0.82141    0.43754    0.53770    1.000
    Si5069   Si       0.75422    0.45296    0.58372    1.000
    N5070    N        0.74898    0.44214    0.54193    1.000
    N5071    N        0.78618    0.42843    0.59597    1.000
    Si5072   Si       0.78248    0.42064    0.52347    1.000
    N5073    N        0.91801    0.44021    0.61211    1.000
    N5074    N        0.92773    0.47084    0.52358    1.000
    Si5075   Si       0.91453    0.43133    0.50659    1.000
    N5076    N        0.87219    0.43358    0.49900    1.000
    N5077    N        0.97912    0.47768    0.60715    1.000
    Si5078   Si       0.93567    0.48057    0.61304    1.000
    N5079    N        0.75556    0.43152    0.74675    1.000
    N5080    N        0.81843    0.45680    0.72277    1.000
    N5081    N        0.75639    0.44019    0.68371    1.000
    Si5082   Si       0.78575    0.42725    0.71430    1.000
    Si5083   Si       0.75990    0.47335    0.65316    1.000
    Si5084   Si       0.84198    0.47652    0.64687    1.000
    Si5085   Si       0.85268    0.44425    0.74522    1.000
    Si5086   Si       0.90998    0.44550    0.65686    1.000
    N5087    N        0.93526    0.42830    0.68705    1.000
    N5088    N        0.89075    0.46362    0.73124    1.000
    Si5089   Si       0.93148    0.45378    0.72220    1.000
    N5090    N        0.86701    0.43919    0.65260    1.000
    N5091    N        0.78651    0.44643    0.81245    1.000
    Si5092   Si       0.74970    0.43085    0.78965    1.000
    Si5093   Si       0.75938    0.47611    0.82881    1.000
    N5094    N        0.75003    0.45632    0.86698    1.000
    N5095    N        0.85900    0.46240    0.78562    1.000
    Si5096   Si       0.87641    0.44095    0.82038    1.000
    N5097    N        0.94293    0.43330    0.76015    1.000
    Si5098   Si       0.95982    0.47076    0.77180    1.000
    N5099    N        0.89218    0.47340    0.84527    1.000
    N5100    N        0.80246    0.43614    0.90791    1.000
    N5101    N        0.79137    0.45324    0.97417    1.000
    Si5102   Si       0.80074    0.47951    0.90643    1.000
    Si5103   Si       0.80694    0.42059    0.95084    1.000
    Si5104   Si       0.86710    0.48208    0.88148    1.000
    Si5105   Si       0.99388    0.43839    0.99295    1.000
    N5106    N        0.87247    0.44341    0.90328    1.000
    Si5107   Si       0.96346    0.46358    0.88999    1.000
    N5108    N        0.94568    0.42396    0.88800    1.000
    Si5109   Si       0.91036    0.43972    0.92660    1.000
    N5110    N        0.90307    0.45290    0.96772    1.000
    Si5111   Si       0.87301    0.43616    0.99114    1.000
    N5112    N        0.76357    0.51895    0.10061    1.000
    N5113    N        0.78697    0.50462    0.00560    1.000
    Si5114   Si       0.76442    0.47949    0.11947    1.000
    N5115    N        0.98779    0.51012    0.03121    1.000
    N5116    N        0.91825    0.50436    0.02540    1.000
    Si5117   Si       0.91076    0.49564    0.10031    1.000
    Si5118   Si       0.95329    0.48421    0.03886    1.000
    N5119    N        0.83135    0.51826    0.11930    1.000
    N5120    N        0.74559    0.48545    0.15900    1.000
    Si5121   Si       0.80609    0.53114    0.21118    1.000
    N5122    N        0.80311    0.48959    0.19966    1.000
    Si5123   Si       0.84961    0.53282    0.15679    1.000
    N5124    N        0.99129    0.52225    0.24051    1.000
    N5125    N        0.91874    0.49983    0.14131    1.000
    N5126    N        0.86717    0.50252    0.18208    1.000
    Si5127   Si       0.95216    0.53142    0.15416    1.000
    Si5128   Si       0.90894    0.49535    0.18449    1.000
    N5129    N        0.93491    0.53060    0.19435    1.000
    N5130    N        0.98685    0.50759    0.14694    1.000
    Si5131   Si       0.83772    0.51643    0.33864    1.000
    Si5132   Si       0.83413    0.49265    0.26937    1.000
    N5133    N        0.85934    0.49952    0.30525    1.000
    N5134    N        0.74472    0.50616    0.28755    1.000
    N5135    N        0.80498    0.53889    0.32030    1.000
    Si5136   Si       0.76072    0.53774    0.31220    1.000
    N5137    N        0.83037    0.53068    0.24607    1.000
    N5138    N        0.97699    0.49161    0.36353    1.000
    Si5139   Si       0.97726    0.52514    0.33339    1.000
    N5140    N        0.94916    0.50043    0.31037    1.000
    Si5141   Si       0.92853    0.53561    0.29605    1.000
    N5142    N        0.90983    0.53920    0.25725    1.000
    Si5143   Si       0.80103    0.50945    0.46016    1.000
    N5144    N        0.82757    0.49106    0.48720    1.000
    N5145    N        0.82486    0.51601    0.42588    1.000
    N5146    N        0.75875    0.50727    0.45579    1.000
    N5147    N        0.75391    0.49753    0.38957    1.000
    Si5148   Si       0.97681    0.49216    0.40834    1.000
    N5149    N        0.90956    0.52644    0.39696    1.000
    N5150    N        0.97438    0.53417    0.42069    1.000
    Si5151   Si       0.90432    0.48227    0.39336    1.000
    N5152    N        0.92292    0.51527    0.46718    1.000
    Si5153   Si       0.93266    0.54134    0.43203    1.000
    Si5154   Si       0.84211    0.51612    0.57799    1.000
    Si5155   Si       0.83686    0.52713    0.51236    1.000
    N5156    N        0.80903    0.52682    0.54972    1.000
    Si5157   Si       0.76685    0.52750    0.55562    1.000
    N5158    N        0.74946    0.49672    0.58133    1.000
    N5159    N        0.74362    0.52725    0.51933    1.000
    N5160    N        0.83512    0.48034    0.60112    1.000
    N5161    N        0.86604    0.50883    0.54182    1.000
    N5162    N        0.91990    0.51040    0.58652    1.000
    Si5163   Si       0.90821    0.50325    0.54600    1.000
    Si5164   Si       0.94682    0.50212    0.49989    1.000
    N5165    N        0.73899    0.51083    0.65156    1.000
    Si5166   Si       0.79960    0.49494    0.70569    1.000
    N5167    N        0.75696    0.49617    0.71638    1.000
    N5168    N        0.81862    0.53192    0.71514    1.000
    Si5169   Si       0.73946    0.53339    0.72771    1.000
    N5170    N        0.80221    0.48267    0.66252    1.000
    N5171    N        0.86284    0.51090    0.66720    1.000
    N5172    N        0.92501    0.48625    0.65418    1.000
    N5173    N        0.92226    0.52448    0.71138    1.000
    Si5174   Si       0.96553    0.52479    0.71970    1.000
    Si5175   Si       0.90324    0.52031    0.67251    1.000
    N5176    N        0.96944    0.48185    0.72942    1.000
    N5177    N        0.77876    0.51523    0.82688    1.000
    Si5178   Si       0.81366    0.52582    0.85280    1.000
    N5179    N        0.82557    0.48807    0.87091    1.000
    Si5180   Si       0.92592    0.49568    0.83024    1.000
    Si5181   Si       0.88722    0.49190    0.76545    1.000
    N5182    N        0.92364    0.48860    0.78893    1.000
    N5183    N        0.88028    0.53486    0.76383    1.000
    N5184    N        0.92277    0.53656    0.84489    1.000
    N5185    N        0.96087    0.47833    0.84930    1.000
    N5186    N        0.76415    0.50470    0.90647    1.000
    N5187    N        0.82412    0.49908    0.93659    1.000
    Si5188   Si       0.81757    0.48764    0.97838    1.000
    Si5189   Si       0.84053    0.53579    0.91773    1.000
    N5190    N        0.85465    0.47724    0.99663    1.000
    N5191    N        0.92958    0.48241    0.91219    1.000
    Si5192   Si       0.91126    0.52046    0.92278    1.000
    Si5193   Si       0.89374    0.49262    0.99164    1.000
    N5194    N        0.87623    0.52135    0.89551    1.000
    N5195    N        0.89509    0.52202    0.96163    1.000
    Si5196   Si       0.83467    0.56997    0.03995    1.000
    N5197    N        0.80149    0.57367    0.00805    1.000
    Si5198   Si       0.79962    0.54262    0.10406    1.000
    N5199    N        0.80851    0.54248    0.06090    1.000
    N5200    N        0.79841    0.58505    0.11746    1.000
    Si5201   Si       0.78185    0.53997    0.02708    1.000
    N5202    N        0.90316    0.53755    0.08403    1.000
    N5203    N        0.86994    0.55296    0.02104    1.000
    N5204    N        0.94855    0.56678    0.03436    1.000
    Si5205   Si       0.90882    0.54519    0.04152    1.000
    Si5206   Si       0.90447    0.56916    0.11388    1.000
    Si5207   Si       0.98610    0.55124    0.05299    1.000
    N5208    N        0.81679    0.55418    0.17597    1.000
    Si5209   Si       0.79931    0.59131    0.16075    1.000
    N5210    N        0.76425    0.54170    0.21523    1.000
    Si5211   Si       0.73799    0.57250    0.19812    1.000
    N5212    N        0.87807    0.56819    0.14998    1.000
    Si5213   Si       0.98419    0.58401    0.12530    1.000
    N5214    N        0.94515    0.56590    0.13029    1.000
    N5215    N        0.96028    0.58622    0.23347    1.000
    Si5216   Si       0.92458    0.56287    0.22303    1.000
    N5217    N        0.88110    0.57564    0.21716    1.000
    Si5218   Si       0.86922    0.59729    0.18163    1.000
    N5219    N        0.85092    0.58403    0.28104    1.000
    N5220    N        0.76654    0.56460    0.27790    1.000
    Si5221   Si       0.80974    0.57482    0.29608    1.000
    N5222    N        0.85146    0.54468    0.36896    1.000
    Si5223   Si       0.74494    0.53284    0.25217    1.000
    Si5224   Si       0.86813    0.55387    0.25438    1.000
    Si5225   Si       0.98555    0.56123    0.25853    1.000
    N5226    N        0.96611    0.55855    0.29737    1.000
    N5227    N        0.90742    0.55213    0.32921    1.000
    Si5228   Si       0.97133    0.59119    0.32408    1.000
    N5229    N        0.98092    0.56179    0.35694    1.000
    Si5230   Si       0.89548    0.55625    0.36894    1.000
    Si5231   Si       0.75295    0.54035    0.38422    1.000
    Si5232   Si       0.82756    0.55202    0.40296    1.000
    Si5233   Si       0.83136    0.57759    0.47057    1.000
    N5234    N        0.78796    0.56492    0.39060    1.000
    N5235    N        0.84674    0.58166    0.43046    1.000
    Si5236   Si       0.75518    0.54522    0.48177    1.000
    N5237    N        0.80083    0.54708    0.48246    1.000
    N5238    N        0.86405    0.55915    0.49546    1.000
    Si5239   Si       0.90532    0.55053    0.48812    1.000
    N5240    N        0.92448    0.57671    0.45642    1.000
    N5241    N        0.75361    0.56667    0.57135    1.000
    Si5242   Si       0.84414    0.57860    0.61782    1.000
    Si5243   Si       0.77103    0.59696    0.60092    1.000
    N5244    N        0.86314    0.54695    0.59913    1.000
    Si5245   Si       0.94327    0.57223    0.54387    1.000
    N5246    N        0.92220    0.58190    0.58072    1.000
    Si5247   Si       0.90654    0.54885    0.60394    1.000
    N5248    N        0.98702    0.57882    0.53756    1.000
    N5249    N        0.98453    0.55364    0.62082    1.000
    N5250    N        0.92803    0.53544    0.52375    1.000
    N5251    N        0.82122    0.56916    0.65274    1.000
    N5252    N        0.75700    0.58145    0.63937    1.000
    Si5253   Si       0.80208    0.56291    0.74122    1.000
    Si5254   Si       0.84308    0.54611    0.68301    1.000
    Si5255   Si       0.78782    0.59400    0.67025    1.000
    N5256    N        0.79675    0.59520    0.71382    1.000
    N5257    N        0.97990    0.54333    0.68370    1.000
    Si5258   Si       0.95839    0.56290    0.65324    1.000
    N5259    N        0.87862    0.57112    0.69561    1.000
    N5260    N        0.91810    0.55144    0.64535    1.000
    Si5261   Si       0.90168    0.55592    0.73239    1.000
    N5262    N        0.82556    0.57473    0.77703    1.000
    N5263    N        0.77746    0.58487    0.82335    1.000
    Si5264   Si       0.76116    0.54847    0.80419    1.000
    N5265    N        0.76660    0.54683    0.76103    1.000
    Si5266   Si       0.86104    0.55691    0.79419    1.000
    N5267    N        0.85069    0.53890    0.83268    1.000
    N5268    N        0.97724    0.56626    0.81374    1.000
    Si5269   Si       0.96038    0.56008    0.85331    1.000
    Si5270   Si       0.96488    0.58612    0.77334    1.000
    Si5271   Si       0.88324    0.54722    0.85947    1.000
    N5272    N        0.97825    0.54828    0.75334    1.000
    N5273    N        0.92430    0.58822    0.75125    1.000
    N5274    N        0.88504    0.59089    0.80904    1.000
    N5275    N        0.74042    0.56657    0.87970    1.000
    Si5276   Si       0.80708    0.57726    0.96441    1.000
    N5277    N        0.76869    0.56506    0.94594    1.000
    N5278    N        0.84542    0.56165    0.95178    1.000
    Si5279   Si       0.76981    0.54827    0.90675    1.000
    N5280    N        0.80949    0.55222    0.88969    1.000
    N5281    N        0.92926    0.55933    0.91493    1.000
    Si5282   Si       0.88120    0.55982    0.97809    1.000
    N5283    N        0.88077    0.58743    0.87623    1.000
    N5284    N        0.91217    0.58829    0.98146    1.000
    N5285    N        0.98593    0.54569    0.88538    1.000
    Si5286   Si       0.97052    0.55849    0.92558    1.000
    Si5287   Si       0.95414    0.58089    0.99004    1.000
    N5288    N        0.97479    0.54887    0.96837    1.000
    Si5289   Si       0.78552    0.61164    0.02453    1.000
    Si5290   Si       0.79731    0.61935    0.08987    1.000
    N5291    N        0.82640    0.60903    0.05664    1.000
    Si5292   Si       0.85518    0.63963    0.04178    1.000
    N5293    N        0.76441    0.61039    0.06404    1.000
    N5294    N        0.74355    0.60664    0.00466    1.000
    N5295    N        0.75251    0.64410    0.12080    1.000
    N5296    N        0.79376    0.65180    0.01304    1.000
    Si5297   Si       0.91179    0.64255    0.07198    1.000
    N5298    N        0.90171    0.61256    0.10381    1.000
    N5299    N        0.89263    0.61769    0.03924    1.000
    N5300    N        0.95031    0.64590    0.04863    1.000
    Si5301   Si       0.98470    0.64998    0.07640    1.000
    N5302    N        0.75949    0.60030    0.17361    1.000
    Si5303   Si       0.81565    0.63811    0.21574    1.000
    N5304    N        0.83040    0.61720    0.18026    1.000
    N5305    N        0.78136    0.61692    0.23733    1.000
    Si5306   Si       0.90684    0.64342    0.13496    1.000
    N5307    N        0.95672    0.65304    0.20766    1.000
    Si5308   Si       0.91423    0.64622    0.21379    1.000
    Si5309   Si       0.97971    0.62567    0.23268    1.000
    N5310    N        0.90398    0.62467    0.17467    1.000
    Si5311   Si       0.83137    0.64059    0.33717    1.000
    Si5312   Si       0.75003    0.60106    0.26102    1.000
    Si5313   Si       0.76542    0.63980    0.32804    1.000
    N5314    N        0.79832    0.60699    0.32497    1.000
    Si5315   Si       0.79301    0.60289    0.36834    1.000
    N5316    N        0.76568    0.63571    0.37324    1.000
    N5317    N        0.84594    0.63996    0.24738    1.000
    N5318    N        0.74157    0.62467    0.29518    1.000
    N5319    N        0.87265    0.63839    0.31840    1.000
    Si5320   Si       0.87348    0.62360    0.27579    1.000
    Si5321   Si       0.93786    0.64861    0.28614    1.000
    N5322    N        0.97945    0.64565    0.27100    1.000
    N5323    N        0.93886    0.61971    0.31881    1.000
    Si5324   Si       0.90682    0.62551    0.34783    1.000
    N5325    N        0.91103    0.63283    0.25615    1.000
    N5326    N        0.83122    0.62209    0.37598    1.000
    N5327    N        0.75841    0.65118    0.44626    1.000
    Si5328   Si       0.75923    0.61832    0.47231    1.000
    N5329    N        0.80408    0.61266    0.47611    1.000
    Si5330   Si       0.86164    0.61438    0.40571    1.000
    N5331    N        0.86339    0.64185    0.49341    1.000
    Si5332   Si       0.74205    0.64516    0.40694    1.000
    N5333    N        0.89638    0.59769    0.37965    1.000
    N5334    N        0.98043    0.62090    0.47836    1.000
    Si5335   Si       0.93922    0.61047    0.47849    1.000
    N5336    N        0.87490    0.65490    0.41825    1.000
    N5337    N        0.92754    0.65205    0.46885    1.000
    Si5338   Si       0.82799    0.63397    0.57230    1.000
    N5339    N        0.80567    0.64094    0.53756    1.000
    N5340    N        0.75693    0.63657    0.58867    1.000
    Si5341   Si       0.76283    0.64486    0.54504    1.000
    N5342    N        0.81385    0.59989    0.59533    1.000
    N5343    N        0.74002    0.62801    0.51271    1.000
    Si5344   Si       0.82106    0.64698    0.49809    1.000
    N5345    N        0.87040    0.62820    0.56519    1.000
    Si5346   Si       0.89145    0.63392    0.52741    1.000
    Si5347   Si       0.90074    0.61763    0.59483    1.000
    N5348    N        0.92652    0.65128    0.59857    1.000
    N5349    N        0.92161    0.60226    0.51830    1.000
    N5350    N        0.79486    0.63551    0.65652    1.000
    N5351    N        0.74613    0.64167    0.71900    1.000
    Si5352   Si       0.78870    0.63533    0.72903    1.000
    Si5353   Si       0.90191    0.59502    0.66553    1.000
    N5354    N        0.87873    0.60464    0.62941    1.000
    N5355    N        0.94725    0.60235    0.66545    1.000
    Si5356   Si       0.95375    0.63815    0.69006    1.000
    N5357    N        0.89823    0.63433    0.68656    1.000
    N5358    N        0.83207    0.62611    0.83054    1.000
    N5359    N        0.79559    0.63387    0.77088    1.000
    Si5360   Si       0.80837    0.60662    0.80146    1.000
    Si5361   Si       0.80982    0.65312    0.85623    1.000
    Si5362   Si       0.75952    0.60239    0.85811    1.000
    Si5363   Si       0.87152    0.61355    0.84304    1.000
    Si5364   Si       0.90493    0.61562    0.77773    1.000
    N5365    N        0.94038    0.62852    0.79757    1.000
    Si5366   Si       0.94343    0.63581    0.83988    1.000
    N5367    N        0.90194    0.64567    0.84979    1.000
    N5368    N        0.88155    0.64982    0.76245    1.000
    N5369    N        0.94970    0.60121    0.86592    1.000
    Si5370   Si       0.96213    0.65116    0.76500    1.000
    Si5371   Si       0.78393    0.63609    0.92603    1.000
    N5372    N        0.78575    0.62919    0.88317    1.000
    N5373    N        0.81028    0.61827    0.95593    1.000
    N5374    N        0.74642    0.63029    0.94769    1.000
    N5375    N        0.85572    0.64241    0.99751    1.000
    Si5376   Si       0.91687    0.59788    0.89687    1.000
    N5377    N        0.92791    0.63419    0.91593    1.000
    N5378    N        0.97396    0.62120    0.99315    1.000
    Si5379   Si       0.97077    0.63021    0.89686    1.000
    N5380    N        0.98268    0.59879    0.92634    1.000
    Si5381   Si       0.89615    0.62439    0.99724    1.000
    Si5382   Si       0.85001    0.67987    0.10429    1.000
    Si5383   Si       0.78096    0.69378    0.01094    1.000
    N5384    N        0.81300    0.65811    0.10247    1.000
    Si5385   Si       0.77731    0.67907    0.11996    1.000
    N5386    N        0.87327    0.66751    0.06945    1.000
    N5387    N        0.93259    0.66684    0.10643    1.000
    N5388    N        0.96599    0.70169    0.00231    1.000
    Si5389   Si       0.95246    0.66141    0.00762    1.000
    N5390    N        0.81729    0.68298    0.21375    1.000
    N5391    N        0.77497    0.69770    0.16115    1.000
    Si5392   Si       0.85281    0.68064    0.23903    1.000
    Si5393   Si       0.79291    0.71270    0.19608    1.000
    Si5394   Si       0.88755    0.70162    0.17193    1.000
    Si5395   Si       0.94062    0.70572    0.12334    1.000
    N5396    N        0.93155    0.70119    0.16377    1.000
    Si5397   Si       0.96802    0.68790    0.18425    1.000
    N5398    N        0.88886    0.68238    0.21249    1.000
    N5399    N        0.87539    0.67580    0.13822    1.000
    N5400    N        0.80000    0.66810    0.32200    1.000
    N5401    N        0.85987    0.70045    0.27788    1.000
    Si5402   Si       0.78813    0.71033    0.32287    1.000
    N5403    N        0.86675    0.69532    0.35310    1.000
    N5404    N        0.92300    0.68875    0.30330    1.000
    Si5405   Si       0.88133    0.68425    0.31270    1.000
    Si5406   Si       0.76695    0.69034    0.46230    1.000
    N5407    N        0.80804    0.68599    0.48302    1.000
    N5408    N        0.89079    0.70145    0.47041    1.000
    Si5409   Si       0.92682    0.69102    0.49447    1.000
    N5410    N        0.97220    0.69397    0.49456    1.000
    Si5411   Si       0.88509    0.66132    0.46036    1.000
    Si5412   Si       0.95232    0.68750    0.38645    1.000
    N5413    N        0.97906    0.67388    0.41976    1.000
    N5414    N        0.91891    0.71119    0.40391    1.000
    Si5415   Si       0.98059    0.66284    0.46318    1.000
    Si5416   Si       0.89041    0.68197    0.38760    1.000
    N5417    N        0.92428    0.65981    0.36928    1.000
    N5418    N        0.82253    0.66972    0.59897    1.000
    Si5419   Si       0.83856    0.70803    0.58544    1.000
    N5420    N        0.74882    0.68659    0.55118    1.000
    Si5421   Si       0.74190    0.67689    0.59681    1.000
    N5422    N        0.82758    0.71145    0.54352    1.000
    Si5423   Si       0.91951    0.68753    0.57284    1.000
    N5424    N        0.91485    0.67083    0.53247    1.000
    N5425    N        0.88181    0.70624    0.58803    1.000
    Si5426   Si       0.96413    0.65369    0.62195    1.000
    N5427    N        0.82792    0.70335    0.65732    1.000
    Si5428   Si       0.83216    0.70073    0.70092    1.000
    Si5429   Si       0.80397    0.67306    0.63822    1.000
    Si5430   Si       0.75728    0.68434    0.72053    1.000
    N5431    N        0.76522    0.69505    0.62882    1.000
    N5432    N        0.80080    0.67314    0.71407    1.000
    N5433    N        0.95357    0.67181    0.66071    1.000
    Si5434   Si       0.89612    0.65990    0.72145    1.000
    N5435    N        0.87470    0.69511    0.70725    1.000
    Si5436   Si       0.96549    0.71263    0.67231    1.000
    N5437    N        0.93946    0.65522    0.72884    1.000
    N5438    N        0.83183    0.69641    0.78729    1.000
    Si5439   Si       0.79237    0.67412    0.78702    1.000
    N5440    N        0.76232    0.69272    0.76247    1.000
    N5441    N        0.77777    0.66825    0.82854    1.000
    N5442    N        0.84331    0.67422    0.87372    1.000
    Si5443   Si       0.87442    0.69154    0.77710    1.000
    Si5444   Si       0.88164    0.68324    0.85603    1.000
    N5445    N        0.96823    0.68736    0.78917    1.000
    N5446    N        0.89347    0.70171    0.81537    1.000
    N5447    N        0.96997    0.66191    0.86178    1.000
    N5448    N        0.91131    0.70823    0.75610    1.000
    Si5449   Si       0.93215    0.71270    0.79324    1.000
    N5450    N        0.80578    0.67493    0.93543    1.000
    Si5451   Si       0.83850    0.69030    0.91348    1.000
    N5452    N        0.81834    0.70526    0.98497    1.000
    N5453    N        0.74529    0.69015    0.98500    1.000
    Si5454   Si       0.82215    0.65843    0.97534    1.000
    N5455    N        0.93300    0.71097    0.94347    1.000
    N5456    N        0.87858    0.68559    0.92848    1.000
    Si5457   Si       0.91801    0.66810    0.94216    1.000
    N5458    N        0.91823    0.65602    0.98359    1.000
    Si5459   Si       0.79755    0.73417    0.08111    1.000
    N5460    N        0.83498    0.72116    0.09836    1.000
    N5461    N        0.79066    0.72486    0.03910    1.000
    Si5462   Si       0.81474    0.74724    0.00316    1.000
    N5463    N        0.76168    0.71310    0.09838    1.000
    Si5464   Si       0.98051    0.72332    0.03930    1.000
    N5465    N        0.95739    0.75397    0.05630    1.000
    N5466    N        0.91214    0.73535    0.10438    1.000
    Si5467   Si       0.94579    0.76321    0.09703    1.000
    Si5468   Si       0.87186    0.74587    0.11591    1.000
    N5469    N        0.89925    0.77403    0.02654    1.000
    Si5470   Si       0.76524    0.76705    0.20035    1.000
    N5471    N        0.80525    0.75343    0.19137    1.000
    N5472    N        0.75233    0.72406    0.21449    1.000
    Si5473   Si       0.84159    0.77363    0.17729    1.000
    N5474    N        0.86549    0.74168    0.16054    1.000
    Si5475   Si       0.96045    0.75106    0.23059    1.000
    N5476    N        0.98108    0.71678    0.21227    1.000
    N5477    N        0.97068    0.73712    0.12019    1.000
    N5478    N        0.82283    0.73836    0.32605    1.000
    Si5479   Si       0.84705    0.73154    0.36297    1.000
    Si5480   Si       0.84968    0.74197    0.28980    1.000
    N5481    N        0.77098    0.72803    0.28689    1.000
    Si5482   Si       0.78704    0.76578    0.27907    1.000
    N5483    N        0.82728    0.76810    0.26341    1.000
    N5484    N        0.77281    0.71213    0.36425    1.000
    Si5485   Si       0.74084    0.71840    0.25598    1.000
    N5486    N        0.89005    0.75019    0.30025    1.000
    N5487    N        0.93911    0.75144    0.33704    1.000
    Si5488   Si       0.93066    0.73119    0.29875    1.000
    N5489    N        0.96142    0.74723    0.27244    1.000
    Si5490   Si       0.97162    0.75569    0.36401    1.000
    N5491    N        0.87837    0.76162    0.37169    1.000
    Si5492   Si       0.90119    0.77187    0.33783    1.000
    N5493    N        0.76832    0.72483    0.43515    1.000
    Si5494   Si       0.75390    0.74755    0.47014    1.000
    Si5495   Si       0.78482    0.73559    0.39867    1.000
    N5496    N        0.82896    0.73798    0.40193    1.000
    N5497    N        0.85488    0.75142    0.49418    1.000
    Si5498   Si       0.85836    0.76991    0.41145    1.000
    N5499    N        0.78912    0.75187    0.49203    1.000
    N5500    N        0.98240    0.71692    0.37698    1.000
    N5501    N        0.89211    0.76559    0.43715    1.000
    Si5502   Si       0.89228    0.74416    0.47487    1.000
    N5503    N        0.96285    0.75084    0.44431    1.000
    Si5504   Si       0.96750    0.73713    0.48531    1.000
    Si5505   Si       0.92825    0.75227    0.41755    1.000
    N5506    N        0.83765    0.74856    0.60434    1.000
    Si5507   Si       0.82137    0.72285    0.50206    1.000
    Si5508   Si       0.98104    0.72763    0.59790    1.000
    Si5509   Si       0.88080    0.74822    0.59091    1.000
    Si5510   Si       0.93070    0.75195    0.54354    1.000
    N5511    N        0.88907    0.76387    0.55193    1.000
    N5512    N        0.94724    0.72084    0.57047    1.000
    N5513    N        0.92771    0.73806    0.50158    1.000
    N5514    N        0.74638    0.71993    0.69889    1.000
    N5515    N        0.81791    0.73936    0.71401    1.000
    Si5516   Si       0.75006    0.72413    0.65512    1.000
    N5517    N        0.78023    0.75658    0.65949    1.000
    Si5518   Si       0.82398    0.74599    0.64717    1.000
    Si5519   Si       0.77912    0.75898    0.70538    1.000
    N5520    N        0.74887    0.77377    0.73583    1.000
    N5521    N        0.94137    0.73350    0.70174    1.000
    N5522    N        0.96123    0.73703    0.63618    1.000
    Si5523   Si       0.90213    0.72708    0.71845    1.000
    N5524    N        0.90060    0.77112    0.62270    1.000
    N5525    N        0.87855    0.76319    0.72286    1.000
    Si5526   Si       0.82905    0.73634    0.80582    1.000
    N5527    N        0.84253    0.73780    0.84785    1.000
    Si5528   Si       0.75963    0.76398    0.82799    1.000
    N5529    N        0.79274    0.75487    0.79813    1.000
    N5530    N        0.78174    0.76441    0.86326    1.000
    N5531    N        0.86548    0.75394    0.79335    1.000
    N5532    N        0.94315    0.74982    0.80734    1.000
    Si5533   Si       0.88458    0.74414    0.83654    1.000
    Si5534   Si       0.97159    0.76670    0.83746    1.000
    Si5535   Si       0.82292    0.75826    0.87967    1.000
    N5536    N        0.78137    0.75263    0.97491    1.000
    Si5537   Si       0.75422    0.75917    0.89780    1.000
    N5538    N        0.82774    0.73272    0.91683    1.000
    N5539    N        0.75803    0.72283    0.92201    1.000
    N5540    N        0.84890    0.76691    0.97524    1.000
    Si5541   Si       0.85320    0.76882    0.93261    1.000
    Si5542   Si       0.79467    0.71856    0.94679    1.000
    N5543    N        0.90024    0.71804    0.87350    1.000
    Si5544   Si       0.90073    0.72232    0.91782    1.000
    N5545    N        0.89504    0.76455    0.92104    1.000
    N5546    N        0.96047    0.76811    0.88227    1.000
    N5547    N        0.95783    0.77008    0.98664    1.000
    Si5548   Si       0.96204    0.72866    0.96983    1.000
    Si5549   Si       0.81310    0.80283    0.06323    1.000
    Si5550   Si       0.75784    0.80260    0.08977    1.000
    N5551    N        0.77386    0.82074    0.05199    1.000
    N5552    N        0.79191    0.77557    0.09170    1.000
    N5553    N        0.86047    0.82933    0.00765    1.000
    N5554    N        0.82756    0.77675    0.03413    1.000
    Si5555   Si       0.86232    0.78726    0.01110    1.000
    N5556    N        0.87490    0.79022    0.10678    1.000
    N5557    N        0.94881    0.81813    0.04230    1.000
    Si5558   Si       0.90596    0.82141    0.11011    1.000
    Si5559   Si       0.94049    0.78156    0.02547    1.000
    N5560    N        0.94394    0.80226    0.11784    1.000
    Si5561   Si       0.84810    0.82031    0.12388    1.000
    Si5562   Si       0.78125    0.82509    0.15442    1.000
    N5563    N        0.75295    0.79632    0.17080    1.000
    N5564    N        0.82037    0.80735    0.15331    1.000
    N5565    N        0.76141    0.78384    0.24070    1.000
    N5566    N        0.81456    0.83274    0.23390    1.000
    Si5567   Si       0.84752    0.80301    0.24036    1.000
    Si5568   Si       0.98075    0.80626    0.20816    1.000
    N5569    N        0.86813    0.79693    0.20326    1.000
    Si5570   Si       0.90794    0.81281    0.22139    1.000
    N5571    N        0.94091    0.78666    0.21556    1.000
    Si5572   Si       0.97205    0.83051    0.13617    1.000
    N5573    N        0.77897    0.80863    0.29460    1.000
    Si5574   Si       0.77634    0.82430    0.25397    1.000
    N5575    N        0.98906    0.81463    0.28982    1.000
    N5576    N        0.89823    0.81359    0.32872    1.000
    N5577    N        0.88643    0.81431    0.25917    1.000
    Si5578   Si       0.98231    0.82064    0.33222    1.000
    Si5579   Si       0.79474    0.81397    0.39195    1.000
    N5580    N        0.83473    0.80802    0.40764    1.000
    N5581    N        0.77233    0.77719    0.38391    1.000
    N5582    N        0.78984    0.82255    0.49776    1.000
    N5583    N        0.98355    0.82619    0.49393    1.000
    N5584    N        0.94846    0.78248    0.39237    1.000
    Si5585   Si       0.94470    0.82439    0.39437    1.000
    N5586    N        0.77756    0.79091    0.60124    1.000
    N5587    N        0.84611    0.81668    0.60137    1.000
    Si5588   Si       0.78501    0.78619    0.51781    1.000
    Si5589   Si       0.81793    0.78527    0.58927    1.000
    N5590    N        0.74758    0.78873    0.53688    1.000
    Si5591   Si       0.85869    0.77884    0.52602    1.000
    N5592    N        0.81971    0.78166    0.54589    1.000
    N5593    N        0.86382    0.82115    0.51584    1.000
    N5594    N        0.91249    0.82965    0.56734    1.000
    Si5595   Si       0.95239    0.81452    0.57233    1.000
    N5596    N        0.96278    0.80288    0.61181    1.000
    N5597    N        0.96032    0.78277    0.54262    1.000
    N5598    N        0.84691    0.77840    0.66225    1.000
    Si5599   Si       0.83972    0.77877    0.71010    1.000
    Si5600   Si       0.77151    0.79611    0.64390    1.000
    N5601    N        0.79973    0.79838    0.70421    1.000
    Si5602   Si       0.95971    0.77380    0.70836    1.000
    N5603    N        0.96099    0.79783    0.74391    1.000
    Si5604   Si       0.93978    0.77436    0.63768    1.000
    N5605    N        0.94455    0.79562    0.67520    1.000
    Si5606   Si       0.87081    0.80079    0.63473    1.000
    N5607    N        0.84352    0.80682    0.75046    1.000
    N5608    N        0.97065    0.80402    0.81457    1.000
    N5609    N        0.90624    0.80615    0.78140    1.000
    N5610    N        0.89416    0.78429    0.85232    1.000
    Si5611   Si       0.94586    0.78726    0.78272    1.000
    Si5612   Si       0.87683    0.78087    0.76210    1.000
    Si5613   Si       0.89314    0.82776    0.85562    1.000
    N5614    N        0.83450    0.79346    0.90220    1.000
    N5615    N        0.75673    0.79160    0.92558    1.000
    Si5616   Si       0.74618    0.77632    0.96447    1.000
    N5617    N        0.92023    0.82643    0.89299    1.000
    Si5618   Si       0.97835    0.80638    0.97713    1.000
    Si5619   Si       0.91931    0.78042    0.88920    1.000
    Si5620   Si       0.75206    0.87749    0.10815    1.000
    Si5621   Si       0.82420    0.87846    0.08467    1.000
    N5622    N        0.83096    0.83425    0.08719    1.000
    N5623    N        0.76109    0.83676    0.11729    1.000
    N5624    N        0.74491    0.87141    0.01988    1.000
    Si5625   Si       0.76280    0.83299    0.01254    1.000
    Si5626   Si       0.86988    0.86963    0.02368    1.000
    N5627    N        0.91159    0.85869    0.08798    1.000
    Si5628   Si       0.93528    0.85820    0.05309    1.000
    N5629    N        0.91122    0.87545    0.01857    1.000
    N5630    N        0.96560    0.88988    0.05476    1.000
    N5631    N        0.77920    0.85980    0.18209    1.000
    Si5632   Si       0.80941    0.87132    0.21168    1.000
    N5633    N        0.84487    0.88399    0.18862    1.000
    Si5634   Si       0.74152    0.86587    0.20241    1.000
    N5635    N        0.74601    0.85193    0.24273    1.000
    Si5636   Si       0.95311    0.87140    0.20136    1.000
    N5637    N        0.97647    0.84484    0.22822    1.000
    N5638    N        0.91301    0.85410    0.20700    1.000
    N5639    N        0.88279    0.84142    0.14179    1.000
    N5640    N        0.95778    0.86389    0.15958    1.000
    Si5641   Si       0.88402    0.86676    0.17620    1.000
    Si5642   Si       0.82179    0.85789    0.33351    1.000
    N5643    N        0.84335    0.84986    0.29432    1.000
    N5644    N        0.85709    0.85708    0.36031    1.000
    N5645    N        0.78904    0.83912    0.35580    1.000
    Si5646   Si       0.75705    0.82588    0.32752    1.000
    N5647    N        0.90570    0.87383    0.31015    1.000
    Si5648   Si       0.90363    0.85274    0.35475    1.000
    N5649    N        0.95107    0.84267    0.35640    1.000
    Si5650   Si       0.97687    0.88020    0.35769    1.000
    Si5651   Si       0.88578    0.83747    0.29570    1.000
    Si5652   Si       0.78592    0.85188    0.46415    1.000
    N5653    N        0.82494    0.86553    0.47562    1.000
    N5654    N        0.76242    0.88555    0.47486    1.000
    Si5655   Si       0.85982    0.84424    0.40263    1.000
    N5656    N        0.77519    0.83210    0.42689    1.000
    N5657    N        0.86627    0.88106    0.42581    1.000
    N5658    N        0.96796    0.84418    0.42522    1.000
    Si5659   Si       0.97184    0.88913    0.42833    1.000
    N5660    N        0.90211    0.83314    0.39568    1.000
    Si5661   Si       0.76941    0.86922    0.56609    1.000
    N5662    N        0.80747    0.85169    0.55524    1.000
    Si5663   Si       0.84453    0.85575    0.58179    1.000
    Si5664   Si       0.82630    0.84184    0.51667    1.000
    N5665    N        0.84659    0.87879    0.61910    1.000
    N5666    N        0.77926    0.88904    0.60440    1.000
    N5667    N        0.86596    0.87623    0.54754    1.000
    Si5668   Si       0.96548    0.85793    0.51693    1.000
    Si5669   Si       0.89458    0.84757    0.53141    1.000
    N5670    N        0.92345    0.86600    0.50523    1.000
    N5671    N        0.97825    0.84530    0.55547    1.000
    N5672    N        0.74758    0.84540    0.71067    1.000
    Si5673   Si       0.80542    0.87534    0.63543    1.000
    N5674    N        0.81913    0.86316    0.72851    1.000
    N5675    N        0.78534    0.83777    0.64763    1.000
    Si5676   Si       0.78631    0.83449    0.72687    1.000
    Si5677   Si       0.74724    0.84415    0.66752    1.000
    N5678    N        0.92993    0.85609    0.70764    1.000
    Si5679   Si       0.87984    0.87539    0.64581    1.000
    Si5680   Si       0.93332    0.83769    0.66977    1.000
    Si5681   Si       0.96102    0.84227    0.73418    1.000
    N5682    N        0.96280    0.86023    0.64623    1.000
    N5683    N        0.89265    0.83538    0.65163    1.000
    N5684    N        0.87178    0.88737    0.68600    1.000
    Si5685   Si       0.90056    0.88510    0.71823    1.000
    Si5686   Si       0.99004    0.82965    0.63256    1.000
    N5687    N        0.76842    0.86444    0.83196    1.000
    N5688    N        0.83165    0.86251    0.80118    1.000
    Si5689   Si       0.84342    0.84757    0.76228    1.000
    Si5690   Si       0.85290    0.87566    0.83655    1.000
    Si5691   Si       0.78765    0.86986    0.79360    1.000
    N5692    N        0.77128    0.83715    0.76771    1.000
    Si5693   Si       0.78244    0.87981    0.86820    1.000
    N5694    N        0.85503    0.84401    0.86598    1.000
    N5695    N        0.95054    0.85943    0.77374    1.000
    N5696    N        0.89918    0.85850    0.82616    1.000
    Si5697   Si       0.90820    0.84853    0.78402    1.000
    N5698    N        0.96120    0.87004    0.83999    1.000
    N5699    N        0.88231    0.86579    0.75534    1.000
    Si5700   Si       0.97564    0.84842    0.80784    1.000
    N5701    N        0.85027    0.85172    0.93722    1.000
    N5702    N        0.79165    0.85003    0.89899    1.000
    Si5703   Si       0.83518    0.84764    0.97930    1.000
    N5704    N        0.79451    0.83928    0.98463    1.000
    N5705    N        0.85269    0.88820    0.98668    1.000
    Si5706   Si       0.83137    0.83559    0.90171    1.000
    Si5707   Si       0.75402    0.83257    0.91199    1.000
    Si5708   Si       0.97440    0.88745    0.87869    1.000
    Si5709   Si       0.93345    0.87731    0.98088    1.000
    Si5710   Si       0.93704    0.84743    0.92735    1.000
    Si5711   Si       0.86806    0.88950    0.94494    1.000
    N5712    N        0.94730    0.83727    0.96904    1.000
    N5713    N        0.91227    0.88314    0.94255    1.000
    N5714    N        0.97499    0.86486    0.91442    1.000
    N5715    N        0.79033    0.92243    0.02667    1.000
    Si5716   Si       0.78592    0.93549    0.06705    1.000
    Si5717   Si       0.75539    0.90951    0.00508    1.000
    Si5718   Si       0.83248    0.92046    0.00774    1.000
    N5719    N        0.78562    0.89836    0.08886    1.000
    N5720    N        0.84838    0.89363    0.05128    1.000
    Si5721   Si       0.86103    0.93454    0.06727    1.000
    N5722    N        0.84444    0.89277    0.12025    1.000
    Si5723   Si       0.98803    0.90526    0.01977    1.000
    N5724    N        0.89571    0.92718    0.08949    1.000
    N5725    N        0.96108    0.91834    0.11461    1.000
    Si5726   Si       0.88834    0.88935    0.11227    1.000
    N5727    N        0.74400    0.90804    0.21220    1.000
    N5728    N        0.79676    0.93327    0.17335    1.000
    Si5729   Si       0.83502    0.91194    0.15753    1.000
    Si5730   Si       0.75396    0.92754    0.17273    1.000
    N5731    N        0.73999    0.90668    0.14049    1.000
    Si5732   Si       0.94568    0.93683    0.22732    1.000
    Si5733   Si       0.89662    0.94531    0.17006    1.000
    Si5734   Si       0.94679    0.90663    0.15309    1.000
    N5735    N        0.96360    0.91513    0.19539    1.000
    N5736    N        0.90322    0.94494    0.21341    1.000
    N5737    N        0.90327    0.90356    0.15380    1.000
    N5738    N        0.75093    0.92642    0.34900    1.000
    Si5739   Si       0.79318    0.93070    0.33499    1.000
    N5740    N        0.81172    0.89774    0.31773    1.000
    Si5741   Si       0.76455    0.91618    0.24978    1.000
    N5742    N        0.80136    0.89364    0.24817    1.000
    Si5743   Si       0.83228    0.89256    0.27981    1.000
    N5744    N        0.86687    0.91864    0.26923    1.000
    N5745    N        0.90431    0.94571    0.32341    1.000
    Si5746   Si       0.97627    0.91498    0.28967    1.000
    N5747    N        0.96315    0.91125    0.33167    1.000
    N5748    N        0.94000    0.91723    0.26568    1.000
    Si5749   Si       0.90422    0.91447    0.29233    1.000
    Si5750   Si       0.92986    0.93032    0.35415    1.000
    N5751    N        0.80782    0.93800    0.37610    1.000
    Si5752   Si       0.77398    0.92397    0.45700    1.000
    N5753    N        0.81608    0.92625    0.43952    1.000
    N5754    N        0.74511    0.92217    0.42423    1.000
    Si5755   Si       0.84466    0.89863    0.45851    1.000
    Si5756   Si       0.76211    0.94206    0.38956    1.000
    Si5757   Si       0.83479    0.95039    0.40781    1.000
    N5758    N        0.91411    0.89472    0.37478    1.000
    Si5759   Si       0.89943    0.90714    0.41311    1.000
    N5760    N        0.93402    0.90383    0.44196    1.000
    Si5761   Si       0.91626    0.90607    0.48445    1.000
    N5762    N        0.87265    0.91235    0.48607    1.000
    N5763    N        0.87883    0.94682    0.41120    1.000
    Si5764   Si       0.78104    0.93478    0.53216    1.000
    N5765    N        0.82431    0.93532    0.53276    1.000
    N5766    N        0.75275    0.89984    0.53956    1.000
    Si5767   Si       0.86187    0.91481    0.52937    1.000
    N5768    N        0.93894    0.93437    0.50924    1.000
    N5769    N        0.98432    0.90734    0.59370    1.000
    Si5770   Si       0.98192    0.93240    0.50522    1.000
    Si5771   Si       0.98347    0.94770    0.57664    1.000
    N5772    N        0.88100    0.95052    0.55024    1.000
    Si5773   Si       0.74855    0.90987    0.62556    1.000
    N5774    N        0.84035    0.92971    0.72733    1.000
    N5775    N        0.80375    0.90084    0.66994    1.000
    Si5776   Si       0.83183    0.89454    0.70192    1.000
    Si5777   Si       0.79003    0.94208    0.67188    1.000
    N5778    N        0.76663    0.94888    0.63588    1.000
    Si5779   Si       0.95620    0.89958    0.62855    1.000
    N5780    N        0.91207    0.90111    0.63328    1.000
    N5781    N        0.95902    0.93599    0.65325    1.000
    Si5782   Si       0.91399    0.93940    0.65503    1.000
    N5783    N        0.92348    0.91626    0.73652    1.000
    N5784    N        0.78645    0.91337    0.78330    1.000
    Si5785   Si       0.82044    0.93510    0.76546    1.000
    N5786    N        0.81951    0.89928    0.86091    1.000
    N5787    N        0.85812    0.94537    0.78629    1.000
    Si5788   Si       0.76468    0.94764    0.80146    1.000
    N5789    N        0.87867    0.91195    0.84784    1.000
    Si5790   Si       0.94819    0.90547    0.77271    1.000
    N5791    N        0.92595    0.91950    0.80612    1.000
    Si5792   Si       0.88922    0.94039    0.81742    1.000
    Si5793   Si       0.92208    0.89402    0.84284    1.000
    Si5794   Si       0.74463    0.90240    0.93192    1.000
    Si5795   Si       0.84925    0.92544    0.87861    1.000
    N5796    N        0.75233    0.90427    0.88726    1.000
    N5797    N        0.76905    0.91231    0.96422    1.000
    N5798    N        0.82559    0.94912    0.97459    1.000
    Si5799   Si       0.95767    0.94933    0.97153    1.000
    N5800    N        0.96112    0.90949    0.98639    1.000
    N5801    N        0.93667    0.90896    0.88097    1.000
    N5802    N        0.87062    0.91960    0.91535    1.000
    Si5803   Si       0.91386    0.92041    0.91679    1.000
    N5804    N        0.76102    0.97301    0.06123    1.000
    Si5805   Si       0.83210    0.99808    0.06751    1.000
    N5806    N        0.82306    0.95535    0.07914    1.000
    N5807    N        0.82060    0.00809    0.02686    1.000
    N5808    N        0.86020    0.95013    0.02607    1.000
    N5809    N        0.94162    0.97936    0.07080    1.000
    Si5810   Si       0.97063    0.97755    0.03777    1.000
    N5811    N        0.94626    0.97838    0.00244    1.000
    N5812    N        0.87482    0.00153    0.07349    1.000
    Si5813   Si       0.93375    0.94788    0.10274    1.000
    N5814    N        0.81349    0.00453    0.16696    1.000
    Si5815   Si       0.82189    0.96742    0.18515    1.000
    N5816    N        0.83334    0.96897    0.22692    1.000
    N5817    N        0.76765    0.95999    0.24304    1.000
    N5818    N        0.85635    0.95049    0.16390    1.000
    Si5819   Si       0.94892    0.99716    0.15777    1.000
    N5820    N        0.92761    0.96332    0.14462    1.000
    N5821    N        0.96129    0.97562    0.24057    1.000
    N5822    N        0.98529    0.98060    0.17414    1.000
    Si5823   Si       0.86959    0.95410    0.24365    1.000
    Si5824   Si       0.81931    0.99748    0.31688    1.000
    Si5825   Si       0.80446    0.97547    0.25915    1.000
    N5826    N        0.80548    0.95824    0.30326    1.000
    N5827    N        0.85997    0.00159    0.32813    1.000
    N5828    N        0.74333    0.00157    0.28887    1.000
    Si5829   Si       0.89451    0.98443    0.30830    1.000
    N5830    N        0.88438    0.98964    0.26519    1.000
    N5831    N        0.75909    0.98457    0.40044    1.000
    N5832    N        0.82686    0.99306    0.41450    1.000
    N5833    N        0.77358    0.95227    0.49242    1.000
    Si5834   Si       0.76852    0.99625    0.49617    1.000
    N5835    N        0.87536    0.99161    0.47072    1.000
    Si5836   Si       0.91068    0.97815    0.41271    1.000
    N5837    N        0.93897    0.96344    0.38062    1.000
    Si5838   Si       0.97174    0.99088    0.37894    1.000
    Si5839   Si       0.91602    0.00275    0.48047    1.000
    Si5840   Si       0.98062    0.98263    0.45383    1.000
    N5841    N        0.93780    0.98121    0.44813    1.000
    Si5842   Si       0.84100    0.96576    0.55803    1.000
    Si5843   Si       0.78190    0.97145    0.60161    1.000
    N5844    N        0.82504    0.96226    0.59850    1.000
    N5845    N        0.76465    0.95612    0.56512    1.000
    N5846    N        0.94270    0.96329    0.57771    1.000
    Si5847   Si       0.91940    0.98981    0.60449    1.000
    Si5848   Si       0.92194    0.96234    0.54001    1.000
    N5849    N        0.92603    0.00107    0.52132    1.000
    N5850    N        0.77546    0.95740    0.70831    1.000
    Si5851   Si       0.84936    0.97570    0.63071    1.000
    N5852    N        0.83066    0.96405    0.66838    1.000
    Si5853   Si       0.76643    0.98214    0.74064    1.000
    Si5854   Si       0.85739    0.96181    0.70165    1.000
    N5855    N        0.85928    0.99565    0.72840    1.000
    N5856    N        0.90062    0.95718    0.69268    1.000
    Si5857   Si       0.92558    0.95926    0.72952    1.000
    N5858    N        0.96765    0.96505    0.71784    1.000
    Si5859   Si       0.98702    0.95312    0.68014    1.000
    N5860    N        0.89169    0.96802    0.63007    1.000
    N5861    N        0.80112    0.97307    0.76940    1.000
    N5862    N        0.77899    0.97360    0.83500    1.000
    Si5863   Si       0.87087    0.98481    0.76920    1.000
    N5864    N        0.91430    0.98498    0.76524    1.000
    N5865    N        0.89950    0.97944    0.82855    1.000
    Si5866   Si       0.87411    0.99389    0.86020    1.000
    Si5867   Si       0.92321    0.00486    0.80355    1.000
    Si5868   Si       0.98788    0.00500    0.85347    1.000
    N5869    N        0.84000    0.96743    0.87079    1.000
    N5870    N        0.75984    0.97899    0.98363    1.000
    N5871    N        0.77538    0.96627    0.91655    1.000
    Si5872   Si       0.79453    0.97397    0.87654    1.000
    Si5873   Si       0.84297    0.98198    0.99761    1.000
    Si5874   Si       0.78454    0.95291    0.95847    1.000
    Si5875   Si       0.93459    0.99378    0.91661    1.000
    N5876    N        0.89992    0.00257    0.89271    1.000
    N5877    N        0.87638    0.00539    0.98180    1.000
    N5878    N        0.93022    0.95353    0.93822    1.000
    N5879    N        0.97182    0.99259    0.89318    1.000
