# CIF file generated by openbabel 3.1.1, see https://openbabel.org
data_I
_chemical_name_common '3.01-43.aims'
_cell_length_a 39.9903
_cell_length_b 39.9903
_cell_length_c 39.9903
_cell_angle_alpha 90
_cell_angle_beta 90
_cell_angle_gamma 90
loop_
    _atom_site_label
    _atom_site_type_symbol
    _atom_site_fract_x
    _atom_site_fract_y
    _atom_site_fract_z
    _atom_site_occupancy
    N0       N        0.00894    0.01726    0.10083    1.000
    N1       N        0.01910    0.01445    0.02474    1.000
    Si2      Si       0.02968    0.05215    0.00223    1.000
    N3       N        0.10604    0.01501    0.07980    1.000
    Si4      Si       0.10756    0.02556    0.03799    1.000
    Si5      Si       0.11770    0.03504    0.11696    1.000
    Si6      Si       0.21569    0.03022    0.10466    1.000
    N7       N        0.18577    0.03346    0.07294    1.000
    N8       N        0.21768    0.01215    0.01496    1.000
    Si9      Si       0.01258    0.04273    0.21078    1.000
    N10      N        0.02351    0.03857    0.16799    1.000
    N11      N        0.04659    0.04134    0.23855    1.000
    N12      N        0.08943    0.05443    0.14370    1.000
    Si13     Si       0.09107    0.04740    0.24264    1.000
    Si14     Si       0.14881    0.01660    0.19081    1.000
    N15      N        0.14052    0.01340    0.14637    1.000
    Si16     Si       0.21167    0.02187    0.23795    1.000
    N17      N        0.18240    0.03667    0.21204    1.000
    N18      N        0.20712    0.06075    0.13253    1.000
    N19      N        0.11587    0.03763    0.20761    1.000
    Si20     Si       0.05696    0.03412    0.34662    1.000
    N21      N        0.09717    0.01747    0.27091    1.000
    N22      N        0.05077    0.05904    0.31239    1.000
    Si23     Si       0.02710    0.03795    0.28042    1.000
    N24      N        0.02067    0.02116    0.36720    1.000
    N25      N        0.98965    0.06130    0.27324    1.000
    Si26     Si       0.11704    0.01857    0.30903    1.000
    N27      N        0.19804    0.02092    0.27928    1.000
    Si28     Si       0.20611    0.04015    0.31630    1.000
    N29      N        0.19751    0.01981    0.35170    1.000
    N30      N        0.12303    0.06044    0.32211    1.000
    N31      N        0.08390    0.04886    0.37928    1.000
    Si32     Si       0.02870    0.02467    0.47570    1.000
    N33      N        0.02098    0.02523    0.43364    1.000
    Si34     Si       0.10476    0.01409    0.48590    1.000
    N35      N        0.99398    0.04790    0.48624    1.000
    N36      N        0.06872    0.03590    0.48817    1.000
    Si37     Si       0.10035    0.00843    0.38029    1.000
    N38      N        0.23686    0.06229    0.38295    1.000
    Si39     Si       0.20121    0.04689    0.46706    1.000
    Si40     Si       0.19944    0.04132    0.38861    1.000
    N41      N        0.12742    0.02804    0.44883    1.000
    N42      N        0.19122    0.02776    0.42882    1.000
    N43      N        0.07459    0.03253    0.57198    1.000
    N44      N        0.00786    0.04184    0.59961    1.000
    Si45     Si       0.04152    0.01626    0.59757    1.000
    Si46     Si       0.16491    0.02611    0.60866    1.000
    Si47     Si       0.16840    0.03220    0.53519    1.000
    N48      N        0.12802    0.01893    0.52316    1.000
    N49      N        0.18661    0.01110    0.57188    1.000
    N50      N        0.20065    0.02649    0.50446    1.000
    Si51     Si       0.06988    0.02986    0.66784    1.000
    N52      N        0.06694    0.01546    0.70949    1.000
    N53      N        0.99198    0.00904    0.70735    1.000
    N54      N        0.11160    0.03786    0.66132    1.000
    N55      N        0.22717    0.04045    0.67137    1.000
    N56      N        0.16604    0.01091    0.70997    1.000
    Si57     Si       0.16274    0.05551    0.72683    1.000
    Si58     Si       0.14001    0.00930    0.67536    1.000
    N59      N        0.17247    0.00595    0.64644    1.000
    N60      N        0.08633    0.04473    0.77874    1.000
    Si61     Si       0.08013    0.03961    0.82061    1.000
    Si62     Si       0.01870    0.04664    0.83565    1.000
    N63      N        0.04780    0.01186    0.83459    1.000
    Si64     Si       0.05820    0.03519    0.74753    1.000
    N65      N        0.03029    0.00857    0.76850    1.000
    N66      N        0.99215    0.03815    0.86872    1.000
    N67      N        0.12075    0.04520    0.83686    1.000
    N68      N        0.16073    0.04512    0.77032    1.000
    N69      N        0.22128    0.02335    0.77693    1.000
    Si70     Si       0.18072    0.01001    0.78456    1.000
    Si71     Si       0.21597    0.06690    0.77246    1.000
    N72      N        0.04923    0.04605    0.96540    1.000
    N73      N        0.04547    0.01825    0.91045    1.000
    Si74     Si       0.03459    0.05898    0.92585    1.000
    Si75     Si       0.06207    0.00774    0.94993    1.000
    Si76     Si       0.23049    0.03718    0.89446    1.000
    N77      N        0.21420    0.06106    0.97569    1.000
    N78      N        0.19035    0.04149    0.91407    1.000
    Si79     Si       0.14137    0.02312    0.92029    1.000
    Si80     Si       0.19879    0.02579    0.95394    1.000
    N81      N        0.15871    0.01442    0.95987    1.000
    N82      N        0.07469    0.09565    0.08589    1.000
    Si83     Si       0.03443    0.10710    0.10305    1.000
    Si84     Si       0.08608    0.09888    0.04464    1.000
    N85      N        0.04871    0.08211    0.02509    1.000
    N86      N        0.99686    0.09100    0.08877    1.000
    Si87     Si       0.11298    0.10637    0.10323    1.000
    N88      N        0.98839    0.06654    0.00096    1.000
    N89      N        0.18680    0.09813    0.05050    1.000
    N90      N        0.14123    0.07258    0.10496    1.000
    Si91     Si       0.23136    0.11662    0.04168    1.000
    N92      N        0.12018    0.06949    0.04046    1.000
    Si93     Si       0.15540    0.12079    0.03326    1.000
    Si94     Si       0.15970    0.06670    0.06528    1.000
    N95      N        0.07833    0.09064    0.19357    1.000
    N96      N        0.03237    0.10373    0.14689    1.000
    N97      N        0.99993    0.08561    0.20826    1.000
    Si98     Si       0.99969    0.11509    0.17700    1.000
    Si99     Si       0.05343    0.06908    0.16087    1.000
    Si100    Si       0.11202    0.06797    0.17652    1.000
    N101     N        0.17468    0.10310    0.24248    1.000
    Si102    Si       0.18093    0.07945    0.20672    1.000
    N103     N        0.15295    0.08173    0.17251    1.000
    N104     N        0.22299    0.08695    0.19653    1.000
    Si105    Si       0.17070    0.08564    0.13219    1.000
    N106     N        0.08757    0.11211    0.33925    1.000
    N107     N        0.09230    0.08804    0.26453    1.000
    Si108    Si       0.08759    0.08113    0.30774    1.000
    Si109    Si       0.20121    0.10489    0.27774    1.000
    Si110    Si       0.15546    0.08290    0.33865    1.000
    N111     N        0.18575    0.07771    0.30850    1.000
    Si112    Si       0.08836    0.09093    0.37810    1.000
    N113     N        0.09636    0.09396    0.46348    1.000
    N114     N        0.05672    0.11266    0.40024    1.000
    N115     N        0.00323    0.09533    0.43908    1.000
    Si116    Si       0.01335    0.10939    0.39818    1.000
    Si117    Si       0.08728    0.12149    0.43128    1.000
    Si118    Si       0.00888    0.12475    0.47108    1.000
    Si119    Si       0.23661    0.08953    0.41607    1.000
    N120     N        0.12290    0.09868    0.40942    1.000
    Si121    Si       0.13137    0.07214    0.44653    1.000
    N122     N        0.20593    0.11701    0.41072    1.000
    Si123    Si       0.16178    0.11370    0.39476    1.000
    Si124    Si       0.18405    0.11224    0.48918    1.000
    N125     N        0.23439    0.07215    0.45525    1.000
    N126     N        0.16828    0.07966    0.46667    1.000
    N127     N        0.16955    0.07030    0.37740    1.000
    N128     N        0.09639    0.08851    0.53332    1.000
    N129     N        0.08975    0.09492    0.60271    1.000
    N130     N        0.03309    0.09422    0.56697    1.000
    Si131    Si       0.07219    0.07606    0.56891    1.000
    Si132    Si       0.99387    0.08272    0.58700    1.000
    N133     N        0.03917    0.10877    0.49908    1.000
    Si134    Si       0.07324    0.07966    0.49732    1.000
    Si135    Si       0.20908    0.08594    0.55224    1.000
    Si136    Si       0.16894    0.10735    0.60115    1.000
    N137     N        0.21732    0.10043    0.51307    1.000
    Si138    Si       0.13507    0.10425    0.54019    1.000
    N139     N        0.20710    0.11678    0.58413    1.000
    N140     N        0.16787    0.07446    0.54806    1.000
    N141     N        0.15667    0.06781    0.61689    1.000
    Si142    Si       0.07419    0.09789    0.64324    1.000
    Si143    Si       0.02593    0.08587    0.69888    1.000
    N144     N        0.10954    0.10628    0.66858    1.000
    N145     N        0.05064    0.06980    0.66662    1.000
    N146     N        0.03093    0.06915    0.73889    1.000
    Si147    Si       0.11091    0.11640    0.71503    1.000
    N148     N        0.12739    0.08050    0.73319    1.000
    N149     N        0.16628    0.07109    0.68314    1.000
    N150     N        0.20305    0.07693    0.73187    1.000
    Si151    Si       0.20745    0.07419    0.68834    1.000
    Si152    Si       0.13445    0.07453    0.65328    1.000
    N153     N        0.22585    0.10691    0.66526    1.000
    Si154    Si       0.00145    0.08403    0.76885    1.000
    Si155    Si       0.06120    0.10951    0.85375    1.000
    N156     N        0.99749    0.07790    0.81332    1.000
    N157     N        0.05639    0.07087    0.83808    1.000
    N158     N        0.10417    0.11073    0.86515    1.000
    N159     N        0.12427    0.10189    0.80016    1.000
    Si160    Si       0.20601    0.09978    0.84738    1.000
    N161     N        0.20440    0.09602    0.80438    1.000
    Si162    Si       0.13071    0.08874    0.84151    1.000
    N163     N        0.16689    0.08935    0.86295    1.000
    Si164    Si       0.12433    0.06806    0.77417    1.000
    N165     N        0.23164    0.06843    0.86448    1.000
    N166     N        0.99937    0.08324    0.92977    1.000
    Si167    Si       0.10096    0.09634    0.90609    1.000
    N168     N        0.06063    0.08494    0.90399    1.000
    Si169    Si       0.99837    0.12410    0.94929    1.000
    N170     N        0.17457    0.10887    0.93516    1.000
    N171     N        0.15152    0.10744    0.99306    1.000
    Si172    Si       0.19174    0.09868    0.97657    1.000
    Si173    Si       0.16903    0.07853    0.90529    1.000
    N174     N        0.12925    0.06245    0.91324    1.000
    N175     N        0.21630    0.12535    0.99906    1.000
    N176     N        0.04221    0.14992    0.10009    1.000
    N177     N        0.00676    0.13838    0.04313    1.000
    N178     N        0.07772    0.13587    0.02718    1.000
    Si179    Si       0.02468    0.17781    0.06325    1.000
    Si180    Si       0.08128    0.17644    0.01445    1.000
    Si181    Si       0.03583    0.12232    0.01506    1.000
    N182     N        0.16359    0.16408    0.02879    1.000
    N183     N        0.22575    0.14283    0.08065    1.000
    Si184    Si       0.13828    0.17165    0.06713    1.000
    Si185    Si       0.19789    0.15544    0.11054    1.000
    N186     N        0.13018    0.12850    0.06928    1.000
    Si187    Si       0.07467    0.16189    0.12500    1.000
    N188     N        0.06271    0.14906    0.22560    1.000
    N189     N        0.00194    0.15515    0.19696    1.000
    N190     N        0.06535    0.17036    0.16637    1.000
    Si191    Si       0.08341    0.13405    0.18962    1.000
    Si192    Si       0.03949    0.17867    0.20107    1.000
    N193     N        0.10444    0.12888    0.13937    1.000
    Si194    Si       0.14145    0.14256    0.15868    1.000
    Si195    Si       0.14697    0.13961    0.23774    1.000
    N196     N        0.12489    0.13776    0.19958    1.000
    N197     N        0.22653    0.16602    0.14106    1.000
    N198     N        0.16865    0.17606    0.23676    1.000
    N199     N        0.17057    0.12812    0.12885    1.000
    N200     N        0.15323    0.18484    0.16370    1.000
    Si201    Si       0.06928    0.15024    0.33210    1.000
    Si202    Si       0.01662    0.16289    0.30508    1.000
    N203     N        0.05359    0.14346    0.29226    1.000
    N204     N        0.03397    0.17278    0.34414    1.000
    Si205    Si       0.08199    0.13208    0.26091    1.000
    N206     N        0.10190    0.18139    0.33447    1.000
    N207     N        0.11952    0.14987    0.26971    1.000
    N208     N        0.20057    0.14426    0.29507    1.000
    Si209    Si       0.18423    0.15789    0.33370    1.000
    N210     N        0.20743    0.17341    0.36626    1.000
    N211     N        0.15986    0.12571    0.35195    1.000
    N212     N        0.08827    0.16328    0.43803    1.000
    N213     N        0.02076    0.16165    0.45065    1.000
    Si214    Si       0.05732    0.18504    0.45960    1.000
    Si215    Si       0.99032    0.17601    0.42345    1.000
    Si216    Si       0.12872    0.18042    0.43320    1.000
    N217     N        0.15875    0.15723    0.41231    1.000
    N218     N        0.19674    0.15132    0.47561    1.000
    Si219    Si       0.20173    0.15980    0.40879    1.000
    N220     N        0.01203    0.15895    0.52908    1.000
    N221     N        0.07522    0.14551    0.55762    1.000
    Si222    Si       0.09921    0.13545    0.59167    1.000
    N223     N        0.99804    0.17874    0.59004    1.000
    Si224    Si       0.04082    0.12793    0.53978    1.000
    Si225    Si       0.01134    0.14706    0.61833    1.000
    Si226    Si       0.16632    0.16936    0.50019    1.000
    Si227    Si       0.15723    0.17223    0.56860    1.000
    N228     N        0.14191    0.13091    0.57497    1.000
    N229     N        0.15198    0.12870    0.51097    1.000
    N230     N        0.18639    0.18101    0.53611    1.000
    Si231    Si       0.04133    0.15161    0.67255    1.000
    N232     N        0.00527    0.17160    0.65525    1.000
    N233     N        0.10864    0.16148    0.62508    1.000
    N234     N        0.04964    0.13303    0.63366    1.000
    N235     N        0.03051    0.12879    0.70528    1.000
    N236     N        0.07006    0.18168    0.68264    1.000
    Si237    Si       0.04261    0.14356    0.74310    1.000
    N238     N        0.13625    0.15068    0.70133    1.000
    Si239    Si       0.13101    0.14286    0.65772    1.000
    Si240    Si       0.17042    0.16830    0.71925    1.000
    Si241    Si       0.20599    0.14379    0.65432    1.000
    N242     N        0.16782    0.13208    0.63819    1.000
    N243     N        0.20306    0.16335    0.69212    1.000
    N244     N        0.23369    0.16624    0.62756    1.000
    Si245    Si       0.10004    0.13594    0.78970    1.000
    Si246    Si       0.02308    0.14739    0.81114    1.000
    N247     N        0.06297    0.13514    0.81386    1.000
    N248     N        0.01144    0.12802    0.76945    1.000
    N249     N        0.02161    0.12681    0.85691    1.000
    N250     N        0.08479    0.13211    0.74743    1.000
    N251     N        0.11266    0.17564    0.79857    1.000
    N252     N        0.17457    0.16373    0.81977    1.000
    N253     N        0.16789    0.15055    0.75832    1.000
    Si254    Si       0.19312    0.13757    0.79023    1.000
    Si255    Si       0.19782    0.17607    0.85429    1.000
    N256     N        0.23520    0.15004    0.78808    1.000
    N257     N        0.21586    0.13780    0.86834    1.000
    Si258    Si       0.02122    0.15839    0.88804    1.000
    N259     N        0.05453    0.16710    0.91309    1.000
    Si260    Si       0.07107    0.14924    0.94900    1.000
    N261     N        0.03511    0.13132    0.97055    1.000
    N262     N        0.98969    0.15167    0.91640    1.000
    N263     N        0.10613    0.12564    0.93814    1.000
    N264     N        0.09061    0.17858    0.97404    1.000
    N265     N        0.22326    0.16271    0.93485    1.000
    N266     N        0.15835    0.17128    0.95831    1.000
    Si267    Si       0.14271    0.13047    0.95672    1.000
    Si268    Si       0.08652    0.21265    0.07861    1.000
    N269     N        0.04263    0.19476    0.02725    1.000
    N270     N        0.04476    0.21374    0.08666    1.000
    N271     N        0.10837    0.19516    0.04480    1.000
    Si272    Si       0.03838    0.23588    0.01120    1.000
    N273     N        0.10607    0.18806    0.10790    1.000
    N274     N        0.98826    0.20474    0.06471    1.000
    N275     N        0.23446    0.21487    0.06376    1.000
    Si276    Si       0.19625    0.22340    0.08443    1.000
    N277     N        0.17011    0.18750    0.09598    1.000
    Si278    Si       0.12142    0.24016    0.02767    1.000
    Si279    Si       0.17245    0.19153    0.99657    1.000
    N280     N        0.17506    0.24543    0.05626    1.000
    N281     N        0.01654    0.21702    0.20084    1.000
    N282     N        0.20904    0.21478    0.19496    1.000
    Si283    Si       0.22367    0.23573    0.22991    1.000
    Si284    Si       0.16796    0.20118    0.20017    1.000
    N285     N        0.20418    0.23314    0.12776    1.000
    Si286    Si       0.22784    0.20649    0.15636    1.000
    N287     N        0.14570    0.23838    0.21171    1.000
    Si288    Si       0.14244    0.20470    0.12688    1.000
    N289     N        0.00504    0.19795    0.28704    1.000
    Si290    Si       0.01208    0.23830    0.30320    1.000
    Si291    Si       0.10992    0.21449    0.36212    1.000
    N292     N        0.11108    0.21573    0.27134    1.000
    N293     N        0.01264    0.24201    0.34765    1.000
    N294     N        0.21781    0.21547    0.26699    1.000
    N295     N        0.16315    0.19087    0.30878    1.000
    Si296    Si       0.22826    0.23545    0.30381    1.000
    Si297    Si       0.16275    0.23627    0.31640    1.000
    Si298    Si       0.19092    0.17981    0.27371    1.000
    Si299    Si       0.12124    0.18280    0.29609    1.000
    Si300    Si       0.03098    0.20614    0.37000    1.000
    N301     N        0.07046    0.22934    0.37241    1.000
    N302     N        0.00004    0.21064    0.39938    1.000
    N303     N        0.05980    0.22500    0.44385    1.000
    Si304    Si       0.08774    0.23770    0.41259    1.000
    N305     N        0.11973    0.21008    0.40379    1.000
    N306     N        0.14193    0.19171    0.47358    1.000
    N307     N        0.05431    0.20834    0.55940    1.000
    Si308    Si       0.01253    0.19547    0.55209    1.000
    Si309    Si       0.06584    0.23380    0.59167    1.000
    N310     N        0.98965    0.22657    0.53363    1.000
    Si311    Si       0.08397    0.18506    0.53795    1.000
    N312     N        0.10978    0.23592    0.59121    1.000
    N313     N        0.07146    0.18150    0.49950    1.000
    N314     N        0.12515    0.19370    0.54652    1.000
    Si315    Si       0.22216    0.20254    0.53732    1.000
    N316     N        0.17120    0.19806    0.60215    1.000
    Si317    Si       0.21457    0.20284    0.60925    1.000
    Si318    Si       0.13044    0.23636    0.55164    1.000
    N319     N        0.23912    0.20802    0.57477    1.000
    N320     N        0.22144    0.24387    0.51964    1.000
    N321     N        0.05630    0.21412    0.62959    1.000
    Si322    Si       0.09169    0.19486    0.64615    1.000
    N323     N        0.09656    0.22873    0.72559    1.000
    Si324    Si       0.05834    0.21184    0.71341    1.000
    Si325    Si       0.02272    0.21243    0.65669    1.000
    N326     N        0.02834    0.23374    0.69314    1.000
    N327     N        0.22953    0.23524    0.63431    1.000
    N328     N        0.12616    0.21797    0.65670    1.000
    Si329    Si       0.14305    0.22742    0.61745    1.000
    N330     N        0.23552    0.22851    0.71984    1.000
    Si331    Si       0.13290    0.23166    0.69769    1.000
    N332     N        0.16426    0.21252    0.71640    1.000
    Si333    Si       0.19510    0.22897    0.73823    1.000
    Si334    Si       0.01090    0.20801    0.77159    1.000
    N335     N        0.06799    0.19899    0.85773    1.000
    Si336    Si       0.02867    0.21428    0.84473    1.000
    Si337    Si       0.09619    0.20719    0.82357    1.000
    N338     N        0.02055    0.18950    0.80841    1.000
    N339     N        0.07768    0.23981    0.79895    1.000
    Si340    Si       0.10383    0.24025    0.76567    1.000
    N341     N        0.00039    0.19202    0.86929    1.000
    N342     N        0.03996    0.18879    0.74505    1.000
    N343     N        0.19817    0.20395    0.77408    1.000
    N344     N        0.14254    0.22958    0.78210    1.000
    N345     N        0.12811    0.22601    0.84719    1.000
    Si346    Si       0.15612    0.18910    0.78781    1.000
    N347     N        0.23203    0.19778    0.83736    1.000
    Si348    Si       0.23514    0.19277    0.79440    1.000
    Si349    Si       0.07033    0.20628    0.90044    1.000
    N350     N        0.04284    0.24025    0.90958    1.000
    N351     N        0.01986    0.23683    0.97294    1.000
    N352     N        0.14117    0.22130    0.99302    1.000
    N353     N        0.11160    0.20932    0.91693    1.000
    N354     N        0.18828    0.22960    0.93862    1.000
    Si355    Si       0.12327    0.20115    0.95793    1.000
    Si356    Si       0.14299    0.22320    0.89047    1.000
    N357     N        0.17454    0.19356    0.88765    1.000
    Si358    Si       0.18671    0.18717    0.92923    1.000
    N359     N        0.21651    0.19253    0.99223    1.000
    N360     N        0.01559    0.26515    0.03948    1.000
    N361     N        0.07783    0.25064    0.01506    1.000
    N362     N        0.99683    0.26506    0.10586    1.000
    Si363    Si       0.08912    0.29279    0.02177    1.000
    N364     N        0.10584    0.24979    0.07358    1.000
    Si365    Si       0.01237    0.23907    0.07562    1.000
    Si366    Si       0.12076    0.27422    0.10541    1.000
    N367     N        0.13368    0.28574    0.02366    1.000
    Si368    Si       0.16829    0.28699    0.05210    1.000
    N369     N        0.21020    0.29723    0.10354    1.000
    Si370    Si       0.23134    0.30192    0.01202    1.000
    N371     N        0.08941    0.29606    0.12242    1.000
    N372     N        0.03718    0.28521    0.16912    1.000
    Si373    Si       0.01822    0.26076    0.20154    1.000
    N374     N        0.03041    0.27300    0.24083    1.000
    N375     N        0.10785    0.28967    0.18806    1.000
    Si376    Si       0.01491    0.29673    0.13261    1.000
    N377     N        0.24016    0.28482    0.16983    1.000
    N378     N        0.17751    0.28271    0.16868    1.000
    N379     N        0.13210    0.24674    0.13801    1.000
    Si380    Si       0.20891    0.27473    0.14008    1.000
    Si381    Si       0.14115    0.26439    0.17799    1.000
    Si382    Si       0.20760    0.29672    0.19770    1.000
    N383     N        0.21302    0.27794    0.23630    1.000
    Si384    Si       0.06363    0.27934    0.27162    1.000
    Si385    Si       0.05416    0.25999    0.34583    1.000
    N386     N        0.05311    0.25052    0.30240    1.000
    N387     N        0.07734    0.29473    0.34943    1.000
    N388     N        0.10093    0.27879    0.25466    1.000
    Si389    Si       0.98929    0.28216    0.25341    1.000
    N390     N        0.23710    0.29582    0.35744    1.000
    Si391    Si       0.11863    0.28523    0.36377    1.000
    N392     N        0.16276    0.25769    0.27838    1.000
    Si393    Si       0.18238    0.29301    0.26605    1.000
    N394     N        0.13245    0.24816    0.34470    1.000
    N395     N        0.20016    0.24509    0.33581    1.000
    Si396    Si       0.13134    0.24658    0.25150    1.000
    N397     N        0.04568    0.29007    0.43548    1.000
    N398     N        0.10508    0.27792    0.40581    1.000
    Si399    Si       0.03420    0.25719    0.45990    1.000
    N400     N        0.09919    0.30009    0.47771    1.000
    Si401    Si       0.21331    0.26238    0.37221    1.000
    N402     N        0.17186    0.28085    0.48113    1.000
    Si403    Si       0.20079    0.27560    0.44736    1.000
    N404     N        0.23574    0.25089    0.45489    1.000
    N405     N        0.18930    0.27039    0.40636    1.000
    N406     N        0.04257    0.27017    0.59175    1.000
    Si407    Si       0.07671    0.28317    0.51170    1.000
    Si408    Si       0.99549    0.26209    0.50846    1.000
    N409     N        0.10292    0.25331    0.52369    1.000
    N410     N        0.03746    0.27283    0.50117    1.000
    Si411    Si       0.00891    0.27079    0.61896    1.000
    Si412    Si       0.19076    0.27534    0.52310    1.000
    N413     N        0.16622    0.26315    0.55630    1.000
    Si414    Si       0.17588    0.28681    0.59139    1.000
    N415     N        0.21918    0.29463    0.58948    1.000
    Si416    Si       0.01363    0.27553    0.69235    1.000
    N417     N        0.02322    0.29267    0.65195    1.000
    N418     N        0.02732    0.30013    0.72540    1.000
    Si419    Si       0.11157    0.29823    0.71589    1.000
    Si420    Si       0.24041    0.24279    0.67676    1.000
    Si421    Si       0.17149    0.28205    0.66438    1.000
    Si422    Si       0.21311    0.29166    0.72327    1.000
    N423     N        0.16291    0.26421    0.62585    1.000
    N424     N        0.20911    0.27421    0.68355    1.000
    N425     N        0.14082    0.27445    0.69342    1.000
    Si426    Si       0.06396    0.27283    0.82207    1.000
    N427     N        0.03093    0.25680    0.84653    1.000
    N428     N        0.09334    0.28906    0.85045    1.000
    N429     N        0.00051    0.25201    0.77553    1.000
    Si430    Si       0.01612    0.29390    0.76747    1.000
    N431     N        0.11866    0.28189    0.75667    1.000
    Si432    Si       0.15548    0.27113    0.77910    1.000
    Si433    Si       0.13490    0.27052    0.84786    1.000
    N434     N        0.15922    0.28790    0.81785    1.000
    N435     N        0.18833    0.26973    0.74994    1.000
    N436     N        0.99756    0.28214    0.91631    1.000
    Si437    Si       0.02970    0.27581    0.88588    1.000
    Si438    Si       0.00530    0.24176    0.93319    1.000
    N439     N        0.15200    0.26690    0.88673    1.000
    Si440    Si       0.19277    0.26910    0.95400    1.000
    N441     N        0.15848    0.29426    0.95616    1.000
    N442     N        0.21732    0.28847    0.92486    1.000
    Si443    Si       0.14104    0.29998    0.91505    1.000
    N444     N        0.22248    0.26578    0.98848    1.000
    N445     N        0.07264    0.32083    0.05188    1.000
    Si446    Si       0.07650    0.32560    0.09379    1.000
    N447     N        0.02353    0.33197    0.00750    1.000
    Si448    Si       0.05407    0.35544    0.02882    1.000
    N449     N        0.03758    0.33283    0.11460    1.000
    Si450    Si       0.01021    0.35487    0.08946    1.000
    Si451    Si       0.00037    0.30387    0.03241    1.000
    Si452    Si       0.14592    0.34259    0.09297    1.000
    N453     N        0.19391    0.31470    0.02795    1.000
    N454     N        0.22981    0.35660    0.07396    1.000
    Si455    Si       0.18492    0.35747    0.02462    1.000
    N456     N        0.14758    0.30126    0.08634    1.000
    N457     N        0.14932    0.35525    0.99827    1.000
    Si458    Si       0.07585    0.30505    0.16153    1.000
    N459     N        0.07862    0.34920    0.16206    1.000
    N460     N        0.08507    0.34241    0.22952    1.000
    Si461    Si       0.11210    0.30928    0.22676    1.000
    N462     N        0.20191    0.33826    0.19653    1.000
    N463     N        0.15451    0.31442    0.23886    1.000
    Si464    Si       0.17012    0.35246    0.22347    1.000
    N465     N        0.16707    0.35999    0.12705    1.000
    N466     N        0.05579    0.31941    0.28683    1.000
    N467     N        0.01758    0.33210    0.33696    1.000
    Si468    Si       0.05992    0.33041    0.32842    1.000
    Si469    Si       0.05774    0.35494    0.26000    1.000
    Si470    Si       0.00478    0.35485    0.37050    1.000
    Si471    Si       0.23726    0.31102    0.31393    1.000
    N472     N        0.19343    0.31537    0.30212    1.000
    Si473    Si       0.17642    0.34006    0.33261    1.000
    N474     N        0.14606    0.31747    0.35367    1.000
    N475     N        0.08931    0.35276    0.42835    1.000
    N476     N        0.02048    0.34749    0.40980    1.000
    Si477    Si       0.00944    0.30694    0.42157    1.000
    Si478    Si       0.08679    0.30537    0.43549    1.000
    Si479    Si       0.23241    0.32521    0.48698    1.000
    Si480    Si       0.18930    0.35742    0.45211    1.000
    N481     N        0.14855    0.34498    0.46262    1.000
    Si482    Si       0.14060    0.30956    0.48685    1.000
    N483     N        0.21181    0.31854    0.44791    1.000
    N484     N        0.03233    0.33893    0.59345    1.000
    N485     N        0.07734    0.31093    0.54491    1.000
    Si486    Si       0.10101    0.34623    0.53429    1.000
    Si487    Si       0.06204    0.30838    0.58642    1.000
    N488     N        0.15296    0.32354    0.58825    1.000
    N489     N        0.14133    0.32993    0.52570    1.000
    Si490    Si       0.16700    0.34935    0.55597    1.000
    Si491    Si       0.23220    0.32468    0.56256    1.000
    N492     N        0.21598    0.31202    0.52389    1.000
    N493     N        0.20692    0.36084    0.57009    1.000
    N494     N        0.08917    0.31747    0.62123    1.000
    Si495    Si       0.05760    0.31937    0.65236    1.000
    Si496    Si       0.05673    0.33317    0.71639    1.000
    N497     N        0.09933    0.33869    0.73045    1.000
    N498     N        0.03985    0.35557    0.66592    1.000
    N499     N        0.07778    0.30245    0.68651    1.000
    Si500    Si       0.99231    0.35932    0.74243    1.000
    N501     N        0.19545    0.33193    0.71841    1.000
    Si502    Si       0.18147    0.35445    0.68267    1.000
    N503     N        0.16283    0.32533    0.65499    1.000
    Si504    Si       0.13046    0.33231    0.62492    1.000
    Si505    Si       0.02525    0.33010    0.83329    1.000
    N506     N        0.03878    0.30402    0.80088    1.000
    Si507    Si       0.18818    0.31895    0.82619    1.000
    N508     N        0.21149    0.32697    0.78866    1.000
    Si509    Si       0.19842    0.35274    0.75713    1.000
    N510     N        0.21774    0.30906    0.85717    1.000
    N511     N        0.16780    0.35428    0.83575    1.000
    N512     N        0.03715    0.31839    0.87613    1.000
    Si513    Si       0.00821    0.33065    0.91094    1.000
    Si514    Si       0.08192    0.32148    0.87818    1.000
    Si515    Si       0.00720    0.34904    0.97110    1.000
    N516     N        0.03912    0.33792    0.94233    1.000
    Si517    Si       0.08155    0.32841    0.94648    1.000
    N518     N        0.09595    0.31239    0.98365    1.000
    N519     N        0.09786    0.30611    0.91478    1.000
    Si520    Si       0.20793    0.32102    0.89776    1.000
    Si521    Si       0.14022    0.31306    0.98936    1.000
    N522     N        0.16476    0.33166    0.89838    1.000
    N523     N        0.03257    0.37648    0.05893    1.000
    Si524    Si       0.10507    0.39880    0.11103    1.000
    N525     N        0.06087    0.40338    0.11571    1.000
    N526     N        0.07743    0.38183    0.00421    1.000
    Si527    Si       0.04246    0.41457    0.07530    1.000
    N528     N        0.98875    0.37890    0.11634    1.000
    N529     N        0.10632    0.35784    0.09856    1.000
    Si530    Si       0.16723    0.41127    0.07091    1.000
    N531     N        0.21914    0.37730    0.00938    1.000
    N532     N        0.16758    0.36738    0.06412    1.000
    Si533    Si       0.20467    0.37087    0.10890    1.000
    N534     N        0.19716    0.41370    0.10285    1.000
    Si535    Si       0.21807    0.41894    0.02096    1.000
    Si536    Si       0.09310    0.37090    0.19732    1.000
    Si537    Si       0.02257    0.39338    0.20799    1.000
    N538     N        0.06472    0.40363    0.20697    1.000
    N539     N        0.01676    0.37219    0.17261    1.000
    Si540    Si       0.04539    0.36902    0.14114    1.000
    N541     N        0.01990    0.36817    0.24420    1.000
    N542     N        0.23522    0.36208    0.13890    1.000
    Si543    Si       0.15342    0.38295    0.16216    1.000
    N544     N        0.12130    0.40887    0.15032    1.000
    N545     N        0.13699    0.36523    0.19736    1.000
    N546     N        0.19347    0.40079    0.17504    1.000
    Si547    Si       0.22282    0.37017    0.17731    1.000
    N548     N        0.07685    0.38442    0.28533    1.000
    N549     N        0.01167    0.39743    0.35786    1.000
    N550     N        0.08366    0.36087    0.34841    1.000
    Si551    Si       0.12042    0.38320    0.33424    1.000
    Si552    Si       0.17235    0.39495    0.27817    1.000
    N553     N        0.15360    0.36913    0.30708    1.000
    N554     N        0.19719    0.37031    0.35670    1.000
    N555     N        0.19774    0.37206    0.25169    1.000
    Si556    Si       0.20373    0.41587    0.34056    1.000
    N557     N        0.14095    0.41269    0.25591    1.000
    Si558    Si       0.99051    0.36453    0.45257    1.000
    N559     N        0.02962    0.38118    0.46440    1.000
    N560     N        0.06559    0.40281    0.40098    1.000
    Si561    Si       0.04999    0.37182    0.42821    1.000
    Si562    Si       0.09393    0.37290    0.38952    1.000
    Si563    Si       0.11415    0.36978    0.46395    1.000
    N564     N        0.18522    0.39351    0.43039    1.000
    N565     N        0.12632    0.41140    0.46626    1.000
    N566     N        0.21829    0.36790    0.48468    1.000
    N567     N        0.13408    0.38343    0.37647    1.000
    Si568    Si       0.17455    0.39225    0.38768    1.000
    Si569    Si       0.04586    0.37707    0.57808    1.000
    N570     N        0.02987    0.38699    0.53866    1.000
    N571     N        0.04514    0.40780    0.61046    1.000
    N572     N        0.08858    0.37281    0.56728    1.000
    Si573    Si       0.05200    0.39107    0.50084    1.000
    N574     N        0.08711    0.36557    0.49760    1.000
    Si575    Si       0.12052    0.39488    0.58724    1.000
    Si576    Si       0.22084    0.40183    0.57214    1.000
    N577     N        0.14967    0.38948    0.55573    1.000
    Si578    Si       0.22704    0.40537    0.50134    1.000
    N579     N        0.00733    0.41162    0.66849    1.000
    Si580    Si       0.04865    0.39985    0.65330    1.000
    N581     N        0.08637    0.41189    0.67161    1.000
    Si582    Si       0.99676    0.36996    0.66893    1.000
    N583     N        0.03634    0.36649    0.73640    1.000
    N584     N        0.10359    0.40708    0.74182    1.000
    Si585    Si       0.23727    0.41311    0.65416    1.000
    N586     N        0.12701    0.37532    0.62587    1.000
    Si587    Si       0.12795    0.39798    0.66142    1.000
    N588     N        0.20882    0.38809    0.67754    1.000
    Si589    Si       0.12833    0.37214    0.73287    1.000
    N590     N        0.14631    0.37908    0.69535    1.000
    N591     N        0.22208    0.38777    0.74631    1.000
    Si592    Si       0.08049    0.38536    0.84118    1.000
    N593     N        0.04278    0.36784    0.83026    1.000
    N594     N        0.11146    0.39099    0.81081    1.000
    Si595    Si       0.03515    0.40841    0.74603    1.000
    N596     N        0.05337    0.41588    0.78489    1.000
    N597     N        0.98762    0.40782    0.83629    1.000
    Si598    Si       0.15433    0.38156    0.80505    1.000
    N599     N        0.18402    0.41359    0.80353    1.000
    N600     N        0.15664    0.36650    0.76544    1.000
    N601     N        0.09440    0.36349    0.87477    1.000
    N602     N        0.98971    0.36901    0.89593    1.000
    N603     N        0.10536    0.36547    0.94435    1.000
    N604     N        0.98888    0.38899    0.96854    1.000
    N605     N        0.21657    0.36513    0.89227    1.000
    Si606    Si       0.17560    0.36841    0.87810    1.000
    N607     N        0.14953    0.39952    0.88775    1.000
    Si608    Si       0.11178    0.38615    0.90769    1.000
    Si609    Si       0.11724    0.37858    0.98386    1.000
    Si610    Si       0.23831    0.40289    0.89441    1.000
    N611     N        0.06838    0.43731    0.04699    1.000
    N612     N        0.00250    0.43496    0.07978    1.000
    N613     N        0.99987    0.44809    0.01046    1.000
    Si614    Si       0.10412    0.45641    0.06412    1.000
    Si615    Si       0.07722    0.42666    0.00504    1.000
    Si616    Si       0.99301    0.46413    0.04826    1.000
    Si617    Si       0.22662    0.44540    0.09386    1.000
    Si618    Si       0.14983    0.44617    0.00389    1.000
    N619     N        0.17692    0.42527    0.02956    1.000
    N620     N        0.12323    0.46985    0.02829    1.000
    N621     N        0.12686    0.42368    0.08246    1.000
    Si622    Si       0.06920    0.44307    0.22374    1.000
    N623     N        0.03751    0.47169    0.22082    1.000
    Si624    Si       0.99740    0.46624    0.20395    1.000
    N625     N        0.08111    0.47535    0.14493    1.000
    N626     N        0.10799    0.45162    0.20380    1.000
    N627     N        0.17538    0.46347    0.21098    1.000
    Si628    Si       0.11391    0.45256    0.16152    1.000
    Si629    Si       0.14003    0.44721    0.23023    1.000
    N630     N        0.23498    0.43650    0.22701    1.000
    Si631    Si       0.20804    0.44027    0.19221    1.000
    N632     N        0.21381    0.46960    0.15959    1.000
    N633     N        0.08432    0.44765    0.26239    1.000
    N634     N        0.05939    0.44418    0.33803    1.000
    Si635    Si       0.10013    0.46084    0.33787    1.000
    Si636    Si       0.02235    0.46653    0.33879    1.000
    Si637    Si       0.10519    0.41570    0.28124    1.000
    N638     N        0.11613    0.42375    0.32162    1.000
    Si639    Si       0.22341    0.45040    0.26918    1.000
    N640     N        0.20078    0.42483    0.29862    1.000
    N641     N        0.99397    0.45149    0.44373    1.000
    Si642    Si       0.04286    0.42263    0.37182    1.000
    N643     N        0.02100    0.45786    0.38419    1.000
    Si644    Si       0.10650    0.44075    0.49093    1.000
    Si645    Si       0.01200    0.48041    0.41819    1.000
    N646     N        0.10770    0.47856    0.47058    1.000
    N647     N        0.16815    0.46256    0.43755    1.000
    Si648    Si       0.18694    0.46806    0.39904    1.000
    N649     N        0.18077    0.43312    0.37279    1.000
    Si650    Si       0.16836    0.42332    0.45812    1.000
    N651     N        0.23029    0.47085    0.40287    1.000
    Si652    Si       0.03808    0.44917    0.59912    1.000
    N653     N        0.00411    0.46070    0.51980    1.000
    N654     N        0.06255    0.45204    0.56366    1.000
    Si655    Si       0.04674    0.46275    0.52410    1.000
    N656     N        0.99964    0.46610    0.58675    1.000
    Si657    Si       0.10451    0.46089    0.56110    1.000
    N658     N        0.06602    0.43200    0.50061    1.000
    N659     N        0.12147    0.43785    0.59568    1.000
    N660     N        0.12883    0.44885    0.52778    1.000
    N661     N        0.19549    0.43759    0.56157    1.000
    Si662    Si       0.16469    0.42409    0.53505    1.000
    Si663    Si       0.20941    0.47454    0.58079    1.000
    N664     N        0.18538    0.42177    0.49789    1.000
    N665     N        0.18596    0.47905    0.61619    1.000
    Si666    Si       0.08966    0.43190    0.70837    1.000
    N667     N        0.05045    0.44302    0.72561    1.000
    N668     N        0.05025    0.47556    0.63099    1.000
    N669     N        0.99079    0.48160    0.67383    1.000
    N670     N        0.15713    0.43039    0.65642    1.000
    Si671    Si       0.14835    0.45842    0.62385    1.000
    Si672    Si       0.18646    0.42508    0.69040    1.000
    N673     N        0.17717    0.43910    0.73132    1.000
    N674     N        0.11640    0.46491    0.71352    1.000
    N675     N        0.21820    0.45046    0.66993    1.000
    N676     N        0.01327    0.45993    0.81703    1.000
    N677     N        0.06183    0.42419    0.85016    1.000
    Si678    Si       0.07527    0.46196    0.86548    1.000
    Si679    Si       0.09647    0.41849    0.78229    1.000
    Si680    Si       0.02893    0.41724    0.82269    1.000
    N681     N        0.23100    0.44899    0.78814    1.000
    N682     N        0.12765    0.45099    0.78569    1.000
    Si683    Si       0.20648    0.44221    0.82582    1.000
    N684     N        0.11949    0.46010    0.85800    1.000
    N685     N        0.21937    0.43191    0.86512    1.000
    Si686    Si       0.13984    0.47482    0.82159    1.000
    Si687    Si       0.14201    0.46350    0.74770    1.000
    Si688    Si       0.20175    0.42275    0.76463    1.000
    Si689    Si       0.07806    0.45658    0.93613    1.000
    Si690    Si       0.02150    0.47136    0.98196    1.000
    N691     N        0.05993    0.45107    0.97512    1.000
    N692     N        0.09982    0.42829    0.91250    1.000
    N693     N        0.05025    0.46764    0.90297    1.000
    N694     N        0.99347    0.47741    0.94803    1.000
    N695     N        0.16418    0.46512    0.91257    1.000
    Si696    Si       0.20552    0.45728    0.89917    1.000
    N697     N        0.22460    0.43038    0.92691    1.000
    Si698    Si       0.13715    0.44014    0.89216    1.000
    N699     N        0.12061    0.42140    0.98728    1.000
    N700     N        0.02587    0.49598    0.05932    1.000
    N701     N        0.09992    0.49352    0.08423    1.000
    Si702    Si       0.06226    0.51156    0.07414    1.000
    N703     N        0.04498    0.52037    0.11434    1.000
    Si704    Si       0.00490    0.53313    0.10167    1.000
    N705     N        0.01935    0.51202    0.99664    1.000
    Si706    Si       0.13896    0.50973    0.01455    1.000
    Si707    Si       0.19845    0.51103    0.06378    1.000
    N708     N        0.21833    0.49615    0.02714    1.000
    N709     N        0.16092    0.52832    0.04766    1.000
    N710     N        0.19841    0.47940    0.09359    1.000
    Si711    Si       0.04521    0.49726    0.15188    1.000
    N712     N        0.05675    0.52421    0.18540    1.000
    Si713    Si       0.04547    0.51519    0.22436    1.000
    Si714    Si       0.10880    0.50199    0.12509    1.000
    N715     N        0.00568    0.48035    0.16324    1.000
    N716     N        0.01157    0.53353    0.24377    1.000
    Si717    Si       0.17827    0.49682    0.23749    1.000
    N718     N        0.18649    0.53148    0.13815    1.000
    Si719    Si       0.18465    0.48894    0.13316    1.000
    N720     N        0.14199    0.47863    0.13895    1.000
    N721     N        0.17533    0.53771    0.22472    1.000
    N722     N        0.03126    0.50691    0.33601    1.000
    Si723    Si       0.10076    0.48549    0.27055    1.000
    N724     N        0.10827    0.49537    0.31159    1.000
    N725     N        0.07647    0.51709    0.25266    1.000
    Si726    Si       0.00150    0.53394    0.32110    1.000
    N727     N        0.20608    0.48964    0.26883    1.000
    Si728    Si       0.19518    0.52950    0.35356    1.000
    Si729    Si       0.21494    0.52232    0.29539    1.000
    N730     N        0.17479    0.52914    0.31480    1.000
    N731     N        0.23325    0.51535    0.33420    1.000
    N732     N        0.13858    0.48552    0.25399    1.000
    Si733    Si       0.13192    0.53199    0.31304    1.000
    N734     N        0.11077    0.47683    0.37538    1.000
    Si735    Si       0.00078    0.52708    0.45428    1.000
    Si736    Si       0.07212    0.50692    0.47697    1.000
    N737     N        0.03619    0.49986    0.45085    1.000
    N738     N        0.13303    0.52578    0.42565    1.000
    N739     N        0.23952    0.51085    0.46756    1.000
    Si740    Si       0.14448    0.49579    0.45579    1.000
    Si741    Si       0.13161    0.51286    0.38445    1.000
    N742     N        0.16901    0.51356    0.48628    1.000
    N743     N        0.17510    0.50481    0.38061    1.000
    Si744    Si       0.20538    0.53626    0.47523    1.000
    N745     N        0.06236    0.50423    0.51846    1.000
    N746     N        0.10432    0.50215    0.58142    1.000
    Si747    Si       0.99530    0.50847    0.59218    1.000
    Si748    Si       0.05792    0.53598    0.54692    1.000
    N749     N        0.02198    0.53766    0.56994    1.000
    N750     N        0.20131    0.50748    0.55335    1.000
    Si751    Si       0.17444    0.52875    0.52532    1.000
    Si752    Si       0.08783    0.49627    0.62391    1.000
    Si753    Si       0.04849    0.48701    0.73108    1.000
    N754     N        0.00774    0.52601    0.62944    1.000
    N755     N        0.04981    0.50827    0.69254    1.000
    Si756    Si       0.02672    0.49933    0.65837    1.000
    N757     N        0.00710    0.49105    0.74221    1.000
    N758     N        0.07428    0.53382    0.63759    1.000
    Si759    Si       0.13206    0.49617    0.68566    1.000
    Si760    Si       0.19020    0.51491    0.72231    1.000
    N761     N        0.11378    0.53463    0.69601    1.000
    N762     N        0.24036    0.51261    0.65414    1.000
    N763     N        0.23194    0.50121    0.72959    1.000
    N764     N        0.12077    0.48533    0.64570    1.000
    N765     N        0.17532    0.49790    0.68575    1.000
    Si766    Si       0.20529    0.48714    0.65379    1.000
    Si767    Si       0.01810    0.49500    0.84221    1.000
    N768     N        0.06902    0.50320    0.76694    1.000
    N769     N        0.00417    0.52165    0.80860    1.000
    Si770    Si       0.07987    0.51761    0.80683    1.000
    N771     N        0.06378    0.49471    0.83779    1.000
    Si772    Si       0.99613    0.48761    0.78348    1.000
    N773     N        0.12286    0.51487    0.81042    1.000
    Si774    Si       0.21140    0.51817    0.81941    1.000
    N775     N        0.16148    0.50137    0.75338    1.000
    Si776    Si       0.14813    0.53185    0.77948    1.000
    N777     N        0.18552    0.48015    0.82565    1.000
    N778     N        0.00087    0.50332    0.88161    1.000
    Si779    Si       0.02152    0.49600    0.91837    1.000
    N780     N        0.04162    0.52704    0.94002    1.000
    Si781    Si       0.08622    0.53341    0.95033    1.000
    N782     N        0.10301    0.49249    0.93966    1.000
    N783     N        0.10809    0.53044    0.99304    1.000
    N784     N        0.22586    0.49554    0.90181    1.000
    N785     N        0.16517    0.48499    0.98252    1.000
    Si786    Si       0.20336    0.50847    0.98718    1.000
    Si787    Si       0.21127    0.53236    0.88549    1.000
    N788     N        0.15634    0.53225    0.93197    1.000
    Si789    Si       0.14606    0.49160    0.94196    1.000
    Si790    Si       0.08787    0.56513    0.01038    1.000
    N791     N        0.01572    0.57338    0.00833    1.000
    N792     N        0.99222    0.55207    0.06314    1.000
    N793     N        0.06452    0.54431    0.04113    1.000
    Si794    Si       0.02097    0.53455    0.03299    1.000
    N795     N        0.11819    0.58789    0.03206    1.000
    N796     N        0.15064    0.58482    0.09562    1.000
    Si797    Si       0.15261    0.57279    0.05322    1.000
    N798     N        0.19180    0.58640    0.04071    1.000
    Si799    Si       0.19551    0.58835    0.99809    1.000
    Si800    Si       0.23453    0.57494    0.05793    1.000
    N801     N        0.22399    0.54173    0.08422    1.000
    Si802    Si       0.08524    0.55423    0.17083    1.000
    N803     N        0.99962    0.56587    0.13139    1.000
    N804     N        0.06147    0.59113    0.16891    1.000
    N805     N        0.05799    0.57738    0.23912    1.000
    N806     N        0.11562    0.54120    0.14042    1.000
    N807     N        0.16322    0.58761    0.16864    1.000
    Si808    Si       0.22660    0.54471    0.12841    1.000
    N809     N        0.11074    0.55984    0.20648    1.000
    Si810    Si       0.15220    0.57057    0.20891    1.000
    Si811    Si       0.15446    0.56140    0.13279    1.000
    Si812    Si       0.02225    0.56956    0.26043    1.000
    N813     N        0.01937    0.56875    0.30408    1.000
    Si814    Si       0.10351    0.58297    0.36893    1.000
    Si815    Si       0.09566    0.55517    0.24617    1.000
    N816     N        0.23423    0.55615    0.27497    1.000
    N817     N        0.12199    0.54612    0.35552    1.000
    N818     N        0.12312    0.55787    0.27921    1.000
    N819     N        0.19886    0.56927    0.37075    1.000
    N820     N        0.08562    0.54637    0.46834    1.000
    N821     N        0.01833    0.56483    0.46372    1.000
    Si822    Si       0.05590    0.57466    0.48361    1.000
    N823     N        0.10761    0.58820    0.41235    1.000
    N824     N        0.19502    0.56376    0.44432    1.000
    N825     N        0.13777    0.58875    0.47282    1.000
    Si826    Si       0.11829    0.56216    0.44402    1.000
    Si827    Si       0.21859    0.56871    0.40989    1.000
    N828     N        0.04720    0.57371    0.52532    1.000
    N829     N        0.07767    0.56286    0.57775    1.000
    Si830    Si       0.00841    0.57450    0.54820    1.000
    Si831    Si       0.04531    0.55323    0.61174    1.000
    Si832    Si       0.11918    0.54250    0.58083    1.000
    N833     N        0.20804    0.55713    0.51197    1.000
    N834     N        0.13991    0.56475    0.60953    1.000
    N835     N        0.13834    0.54596    0.54113    1.000
    Si836    Si       0.23200    0.59139    0.50532    1.000
    N837     N        0.98780    0.57058    0.67634    1.000
    N838     N        0.05942    0.58127    0.68974    1.000
    Si839    Si       0.07452    0.54235    0.67945    1.000
    N840     N        0.03243    0.58983    0.62875    1.000
    Si841    Si       0.23626    0.58759    0.66280    1.000
    N842     N        0.17670    0.55527    0.72266    1.000
    N843     N        0.20145    0.57450    0.64357    1.000
    Si844    Si       0.13299    0.56413    0.72105    1.000
    Si845    Si       0.20244    0.58750    0.72522    1.000
    Si846    Si       0.16940    0.59411    0.62194    1.000
    Si847    Si       0.02171    0.56005    0.81136    1.000
    N848     N        0.00889    0.57251    0.85269    1.000
    N849     N        0.06580    0.56016    0.80966    1.000
    Si850    Si       0.08917    0.58391    0.77876    1.000
    Si851    Si       0.08656    0.58868    0.83969    1.000
    N852     N        0.00525    0.59023    0.78252    1.000
    N853     N        0.12129    0.57027    0.85576    1.000
    N854     N        0.12170    0.56059    0.76107    1.000
    Si855    Si       0.16177    0.56756    0.83800    1.000
    N856     N        0.17980    0.54654    0.80393    1.000
    N857     N        0.23389    0.54263    0.84906    1.000
    N858     N        0.17264    0.53950    0.87034    1.000
    N859     N        0.09736    0.55911    0.91581    1.000
    Si860    Si       0.02267    0.54771    0.97093    1.000
    N861     N        0.06928    0.57351    0.97101    1.000
    Si862    Si       0.07191    0.59188    0.92996    1.000
    N863     N        0.02985    0.59804    0.91719    1.000
    N864     N        0.15748    0.58958    0.90514    1.000
    Si865    Si       0.18057    0.56874    0.93896    1.000
    N866     N        0.21897    0.56559    0.91340    1.000
    Si867    Si       0.13562    0.55307    0.89349    1.000
    N868     N        0.19563    0.55001    0.98015    1.000
    N869     N        0.00792    0.63386    0.03880    1.000
    N870     N        0.03273    0.62384    0.10502    1.000
    Si871    Si       0.99604    0.63186    0.08177    1.000
    N872     N        0.07595    0.64337    0.05357    1.000
    Si873    Si       0.06977    0.64692    0.09616    1.000
    Si874    Si       0.99064    0.60830    0.00976    1.000
    Si875    Si       0.11305    0.63182    0.03478    1.000
    Si876    Si       0.14480    0.62880    0.10002    1.000
    N877     N        0.14352    0.64772    0.06014    1.000
    N878     N        0.23082    0.61428    0.99441    1.000
    Si879    Si       0.22402    0.65426    0.00730    1.000
    N880     N        0.10637    0.64045    0.12077    1.000
    Si881    Si       0.06209    0.60832    0.20851    1.000
    N882     N        0.09385    0.63482    0.21863    1.000
    N883     N        0.99964    0.61547    0.16563    1.000
    N884     N        0.03435    0.64300    0.21540    1.000
    Si885    Si       0.99915    0.65072    0.18751    1.000
    Si886    Si       0.02952    0.59717    0.14021    1.000
    N887     N        0.99519    0.60115    0.24886    1.000
    Si888    Si       0.13670    0.64206    0.22232    1.000
    N889     N        0.17803    0.64114    0.12451    1.000
    N890     N        0.14485    0.65501    0.18239    1.000
    N891     N        0.15343    0.60482    0.23647    1.000
    N892     N        0.21582    0.63843    0.18565    1.000
    Si893    Si       0.17640    0.62888    0.16658    1.000
    N894     N        0.04741    0.62632    0.28435    1.000
    N895     N        0.00920    0.62325    0.34383    1.000
    Si896    Si       0.01508    0.63828    0.25569    1.000
    Si897    Si       0.04164    0.60054    0.31762    1.000
    Si898    Si       0.08292    0.65002    0.28610    1.000
    N899     N        0.06510    0.59503    0.35379    1.000
    N900     N        0.23953    0.62084    0.25734    1.000
    Si901    Si       0.12549    0.64862    0.33003    1.000
    N902     N        0.11854    0.62602    0.29162    1.000
    Si903    Si       0.20001    0.60338    0.34341    1.000
    N904     N        0.19369    0.64316    0.36048    1.000
    N905     N        0.12741    0.61926    0.36093    1.000
    Si906    Si       0.14730    0.59477    0.27931    1.000
    N907     N        0.18275    0.59674    0.30329    1.000
    Si908    Si       0.22341    0.59542    0.28685    1.000
    N909     N        0.09744    0.65216    0.42032    1.000
    N910     N        0.07383    0.61596    0.47714    1.000
    Si911    Si       0.03909    0.62513    0.37659    1.000
    N912     N        0.03381    0.61205    0.41707    1.000
    Si913    Si       0.06286    0.63789    0.44066    1.000
    Si914    Si       0.00130    0.59734    0.44217    1.000
    N915     N        0.98782    0.62511    0.47327    1.000
    N916     N        0.16690    0.62597    0.42343    1.000
    Si917    Si       0.13012    0.62942    0.40193    1.000
    Si918    Si       0.20122    0.63977    0.40289    1.000
    N919     N        0.20332    0.61988    0.48584    1.000
    N920     N        0.23129    0.60904    0.41590    1.000
    Si921    Si       0.17629    0.59962    0.45733    1.000
    N922     N        0.09664    0.62387    0.53781    1.000
    N923     N        0.02366    0.61341    0.56817    1.000
    Si924    Si       0.00341    0.61766    0.60949    1.000
    Si925    Si       0.06591    0.59888    0.55488    1.000
    Si926    Si       0.11381    0.61610    0.49678    1.000
    N927     N        0.19455    0.60911    0.58700    1.000
    N928     N        0.14435    0.64748    0.50675    1.000
    Si929    Si       0.18657    0.65107    0.58243    1.000
    Si930    Si       0.23675    0.59839    0.57946    1.000
    Si931    Si       0.18640    0.65532    0.50532    1.000
    N932     N        0.99612    0.63694    0.65160    1.000
    Si933    Si       0.07784    0.61321    0.71185    1.000
    N934     N        0.01131    0.62037    0.71129    1.000
    Si935    Si       0.99058    0.65377    0.69171    1.000
    Si936    Si       0.02088    0.59710    0.67248    1.000
    N937     N        0.14993    0.62688    0.64419    1.000
    Si938    Si       0.21743    0.65030    0.69162    1.000
    N939     N        0.12093    0.60364    0.70796    1.000
    N940     N        0.18647    0.62125    0.70132    1.000
    Si941    Si       0.14557    0.63419    0.68876    1.000
    Si942    Si       0.02424    0.61781    0.75290    1.000
    N943     N        0.06351    0.61732    0.86131    1.000
    N944     N        0.10780    0.61205    0.80658    1.000
    N945     N        0.06547    0.60288    0.75112    1.000
    Si946    Si       0.13945    0.63658    0.82454    1.000
    N947     N        0.12714    0.64229    0.86648    1.000
    N948     N        0.17279    0.60777    0.82820    1.000
    N949     N        0.21346    0.60531    0.76442    1.000
    Si950    Si       0.20809    0.61716    0.80665    1.000
    N951     N        0.00070    0.64622    0.87272    1.000
    Si952    Si       0.02422    0.60882    0.87533    1.000
    N953     N        0.09592    0.62779    0.92004    1.000
    Si954    Si       0.08632    0.64892    0.88049    1.000
    N955     N        0.23418    0.63344    0.92358    1.000
    N956     N        0.17549    0.60496    0.96422    1.000
    Si957    Si       0.19826    0.63739    0.94700    1.000
    Si958    Si       0.13741    0.62689    0.90582    1.000
    N959     N        0.03311    0.70063    0.04430    1.000
    Si960    Si       0.02255    0.70042    0.08565    1.000
    N961     N        0.05816    0.68707    0.10714    1.000
    Si962    Si       0.04133    0.65863    0.03304    1.000
    N963     N        0.98776    0.67416    0.08795    1.000
    Si964    Si       0.16533    0.68214    0.04407    1.000
    N965     N        0.20704    0.67063    0.04262    1.000
    Si966    Si       0.21741    0.70314    0.06848    1.000
    N967     N        0.17364    0.70729    0.07907    1.000
    N968     N        0.15754    0.71315    0.01484    1.000
    N969     N        0.11527    0.65555    0.99922    1.000
    Si970    Si       0.06850    0.67170    0.21950    1.000
    N971     N        0.00662    0.69181    0.17292    1.000
    N972     N        0.07793    0.68144    0.17672    1.000
    Si973    Si       0.04657    0.70871    0.17651    1.000
    N974     N        0.19074    0.70981    0.19995    1.000
    Si975    Si       0.22167    0.68047    0.19426    1.000
    N976     N        0.12212    0.70695    0.13058    1.000
    Si977    Si       0.15774    0.71127    0.22691    1.000
    Si978    Si       0.11331    0.67019    0.15251    1.000
    N979     N        0.15427    0.67217    0.24754    1.000
    N980     N        0.01396    0.69029    0.32607    1.000
    Si981    Si       0.05531    0.69218    0.34112    1.000
    N982     N        0.08037    0.68524    0.26024    1.000
    N983     N        0.08672    0.66914    0.32338    1.000
    N984     N        0.99436    0.67606    0.26069    1.000
    Si985    Si       0.99940    0.70843    0.29023    1.000
    N986     N        0.21379    0.67797    0.29409    1.000
    N987     N        0.15109    0.68074    0.31911    1.000
    Si988    Si       0.21304    0.67715    0.34013    1.000
    Si989    Si       0.17231    0.68761    0.28372    1.000
    Si990    Si       0.15201    0.70837    0.35215    1.000
    Si991    Si       0.02195    0.68879    0.40786    1.000
    Si992    Si       0.00341    0.66779    0.47621    1.000
    N993     N        0.03303    0.66941    0.44575    1.000
    N994     N        0.04605    0.67046    0.37662    1.000
    Si995    Si       0.11272    0.69303    0.41776    1.000
    N996     N        0.22306    0.67468    0.41431    1.000
    N997     N        0.13158    0.70124    0.45426    1.000
    N998     N        0.20937    0.68837    0.48595    1.000
    N999     N        0.13902    0.68401    0.38482    1.000
    Si1000   Si       0.11637    0.71380    0.49393    1.000
    Si1001   Si       0.05476    0.69675    0.53498    1.000
    Si1002   Si       0.06539    0.69080    0.60708    1.000
    N1003    N        0.02305    0.67468    0.51420    1.000
    N1004    N        0.04159    0.68055    0.57392    1.000
    N1005    N        0.09783    0.69368    0.52685    1.000
    Si1006   Si       0.00611    0.65901    0.55721    1.000
    N1007    N        0.20141    0.66678    0.54418    1.000
    N1008    N        0.20360    0.67245    0.61526    1.000
    Si1009   Si       0.23068    0.69638    0.52972    1.000
    Si1010   Si       0.12256    0.65894    0.54365    1.000
    N1011    N        0.14331    0.65638    0.58062    1.000
    N1012    N        0.08817    0.65888    0.62665    1.000
    Si1013   Si       0.05880    0.68764    0.67919    1.000
    N1014    N        0.01714    0.68805    0.69419    1.000
    Si1015   Si       0.10300    0.68692    0.72674    1.000
    N1016    N        0.04645    0.70779    0.64117    1.000
    N1017    N        0.07734    0.65495    0.70290    1.000
    Si1018   Si       0.13151    0.65836    0.62324    1.000
    N1019    N        0.14109    0.66968    0.71343    1.000
    N1020    N        0.19512    0.68636    0.68444    1.000
    Si1021   Si       0.18714    0.69872    0.64439    1.000
    N1022    N        0.14568    0.69689    0.63688    1.000
    Si1023   Si       0.17236    0.69975    0.72265    1.000
    Si1024   Si       0.04782    0.69167    0.77785    1.000
    N1025    N        0.08776    0.67893    0.76721    1.000
    N1026    N        0.04542    0.69729    0.82250    1.000
    Si1027   Si       0.00406    0.70627    0.83254    1.000
    N1028    N        0.02195    0.65968    0.76829    1.000
    Si1029   Si       0.11980    0.69795    0.78807    1.000
    N1030    N        0.15103    0.67049    0.79819    1.000
    Si1031   Si       0.18801    0.69167    0.79555    1.000
    N1032    N        0.21967    0.66275    0.80471    1.000
    N1033    N        0.20472    0.69895    0.75456    1.000
    N1034    N        0.16522    0.70064    0.86689    1.000
    Si1035   Si       0.99324    0.68085    0.89916    1.000
    Si1036   Si       0.01929    0.68964    0.97001    1.000
    N1037    N        0.02558    0.68736    0.92740    1.000
    N1038    N        0.07933    0.69257    0.88296    1.000
    Si1039   Si       0.08867    0.68553    0.98593    1.000
    N1040    N        0.04897    0.66671    0.98920    1.000
    Si1041   Si       0.06054    0.71165    0.91872    1.000
    N1042    N        0.09412    0.70712    0.94812    1.000
    N1043    N        0.99896    0.71640    0.87415    1.000
    N1044    N        0.21954    0.70083    0.91037    1.000
    N1045    N        0.19814    0.66761    0.97571    1.000
    Si1046   Si       0.18109    0.70848    0.97920    1.000
    Si1047   Si       0.17710    0.69593    0.90833    1.000
    N1048    N        0.16964    0.65408    0.91985    1.000
    N1049    N        0.08008    0.75333    0.09070    1.000
    N1050    N        0.01066    0.74022    0.09707    1.000
    Si1051   Si       0.04867    0.73108    0.01866    1.000
    N1052    N        0.09028    0.72155    0.01228    1.000
    Si1053   Si       0.04144    0.76633    0.08239    1.000
    N1054    N        0.03729    0.76733    0.03793    1.000
    Si1055   Si       0.12862    0.74444    0.01131    1.000
    N1056    N        0.14392    0.76783    0.10977    1.000
    Si1057   Si       0.15926    0.72623    0.11462    1.000
    N1058    N        0.23535    0.73386    0.04286    1.000
    Si1059   Si       0.08127    0.72374    0.12090    1.000
    Si1060   Si       0.02136    0.75652    0.23397    1.000
    N1061    N        0.06036    0.74228    0.15490    1.000
    N1062    N        0.00462    0.75443    0.19019    1.000
    N1063    N        0.04685    0.71846    0.21991    1.000
    N1064    N        0.11732    0.72445    0.21881    1.000
    Si1065   Si       0.19372    0.74735    0.18031    1.000
    N1066    N        0.19502    0.73054    0.13876    1.000
    Si1067   Si       0.23713    0.72171    0.13305    1.000
    N1068    N        0.23137    0.76903    0.18626    1.000
    N1069    N        0.06271    0.73436    0.34047    1.000
    N1070    N        0.02177    0.74452    0.27797    1.000
    Si1071   Si       0.05306    0.75909    0.30734    1.000
    N1072    N        0.08427    0.75775    0.27510    1.000
    Si1073   Si       0.08221    0.72656    0.24443    1.000
    Si1074   Si       0.09138    0.74760    0.36842    1.000
    N1075    N        0.13019    0.74578    0.34887    1.000
    Si1076   Si       0.21279    0.75388    0.35010    1.000
    N1077    N        0.17424    0.72924    0.26423    1.000
    Si1078   Si       0.19363    0.76556    0.27289    1.000
    N1079    N        0.23559    0.76453    0.26207    1.000
    N1080    N        0.19569    0.71415    0.35354    1.000
    N1081    N        0.01650    0.72998    0.41184    1.000
    N1082    N        0.08809    0.74220    0.47723    1.000
    N1083    N        0.08847    0.72841    0.40786    1.000
    Si1084   Si       0.08758    0.76201    0.43730    1.000
    Si1085   Si       0.01429    0.77086    0.41967    1.000
    N1086    N        0.00719    0.75207    0.49147    1.000
    Si1087   Si       0.19128    0.72719    0.48749    1.000
    Si1088   Si       0.23138    0.74639    0.42531    1.000
    N1089    N        0.19268    0.75224    0.45136    1.000
    Si1090   Si       0.00441    0.74217    0.53352    1.000
    N1091    N        0.05067    0.73976    0.53744    1.000
    Si1092   Si       0.07870    0.75683    0.56477    1.000
    N1093    N        0.08938    0.72799    0.60009    1.000
    Si1094   Si       0.05235    0.75944    0.49641    1.000
    N1095    N        0.11100    0.77153    0.54444    1.000
    N1096    N        0.15973    0.74376    0.58580    1.000
    Si1097   Si       0.15091    0.75778    0.54457    1.000
    N1098    N        0.15385    0.73002    0.51050    1.000
    N1099    N        0.21718    0.73798    0.52427    1.000
    Si1100   Si       0.19361    0.76498    0.60526    1.000
    Si1101   Si       0.13086    0.73426    0.61584    1.000
    Si1102   Si       0.00689    0.72052    0.65857    1.000
    Si1103   Si       0.05600    0.75146    0.62484    1.000
    N1104    N        0.01237    0.75498    0.63070    1.000
    N1105    N        0.00519    0.74861    0.69260    1.000
    Si1106   Si       0.10009    0.75699    0.68171    1.000
    Si1107   Si       0.00796    0.71961    0.72601    1.000
    N1108    N        0.06732    0.77236    0.66177    1.000
    N1109    N        0.08791    0.71724    0.69609    1.000
    Si1110   Si       0.23027    0.73408    0.74607    1.000
    N1111    N        0.13131    0.76210    0.64979    1.000
    Si1112   Si       0.20850    0.75200    0.68404    1.000
    N1113    N        0.17626    0.74165    0.71437    1.000
    N1114    N        0.20124    0.74117    0.64298    1.000
    Si1115   Si       0.14560    0.75945    0.74009    1.000
    N1116    N        0.05383    0.75442    0.85621    1.000
    N1117    N        0.03823    0.72710    0.75551    1.000
    N1118    N        0.99433    0.74145    0.80988    1.000
    Si1119   Si       0.02617    0.77018    0.75831    1.000
    Si1120   Si       0.07495    0.71687    0.84687    1.000
    Si1121   Si       0.01931    0.77126    0.82850    1.000
    N1122    N        0.11671    0.71967    0.82588    1.000
    N1123    N        0.18347    0.73335    0.80791    1.000
    Si1124   Si       0.15362    0.73384    0.84186    1.000
    N1125    N        0.17270    0.76597    0.86277    1.000
    N1126    N        0.13302    0.72024    0.75314    1.000
    Si1127   Si       0.01111    0.75709    0.88835    1.000
    N1128    N        0.04742    0.75295    0.91744    1.000
    N1129    N        0.02918    0.72998    0.98065    1.000
    Si1130   Si       0.02175    0.76308    0.95212    1.000
    N1131    N        0.11495    0.76088    0.89948    1.000
    Si1132   Si       0.07255    0.77445    0.88903    1.000
    N1133    N        0.22044    0.73101    0.97690    1.000
    N1134    N        0.12971    0.76538    0.97205    1.000
    N1135    N        0.16233    0.71883    0.94051    1.000
    Si1136   Si       0.12254    0.73912    0.93654    1.000
    N1137    N        0.03645    0.80462    0.10198    1.000
    N1138    N        0.10042    0.82225    0.09104    1.000
    Si1139   Si       0.00204    0.78439    0.01752    1.000
    Si1140   Si       0.11290    0.77996    0.08283    1.000
    Si1141   Si       0.15784    0.80760    0.03401    1.000
    N1142    N        0.19430    0.78515    0.02415    1.000
    N1143    N        0.12829    0.77653    0.04268    1.000
    Si1144   Si       0.23537    0.77598    0.04061    1.000
    Si1145   Si       0.99864    0.81930    0.11857    1.000
    Si1146   Si       0.06960    0.82575    0.12152    1.000
    N1147    N        0.00576    0.80751    0.16127    1.000
    N1148    N        0.07413    0.80579    0.16104    1.000
    Si1149   Si       0.07792    0.81600    0.20414    1.000
    N1150    N        0.04835    0.78622    0.21637    1.000
    Si1151   Si       0.04032    0.77668    0.17157    1.000
    N1152    N        0.20466    0.80908    0.13811    1.000
    Si1153   Si       0.16493    0.79046    0.13712    1.000
    Si1154   Si       0.15545    0.80411    0.21228    1.000
    N1155    N        0.11485    0.80205    0.22462    1.000
    N1156    N        0.16353    0.77888    0.17836    1.000
    N1157    N        0.05082    0.80027    0.32031    1.000
    Si1158   Si       0.09992    0.79758    0.26566    1.000
    Si1159   Si       0.04920    0.80523    0.36375    1.000
    N1160    N        0.13203    0.80002    0.29660    1.000
    Si1161   Si       0.14746    0.78358    0.33253    1.000
    N1162    N        0.14772    0.81279    0.36431    1.000
    N1163    N        0.17904    0.79999    0.25110    1.000
    Si1164   Si       0.15815    0.82808    0.27761    1.000
    N1165    N        0.18777    0.77282    0.31806    1.000
    N1166    N        0.08571    0.78771    0.37916    1.000
    N1167    N        0.01334    0.79060    0.38108    1.000
    N1168    N        0.04983    0.78422    0.44139    1.000
    Si1169   Si       0.04474    0.82011    0.46653    1.000
    N1170    N        0.00159    0.82463    0.47825    1.000
    N1171    N        0.21351    0.77220    0.39029    1.000
    N1172    N        0.18701    0.82002    0.43616    1.000
    Si1173   Si       0.11853    0.81358    0.39603    1.000
    N1174    N        0.14480    0.79734    0.48836    1.000
    N1175    N        0.12594    0.78353    0.42740    1.000
    Si1176   Si       0.16288    0.78554    0.44868    1.000
    Si1177   Si       0.21385    0.81589    0.40272    1.000
    N1178    N        0.06266    0.78626    0.59420    1.000
    Si1179   Si       0.00809    0.81697    0.57129    1.000
    Si1180   Si       0.10734    0.80120    0.51130    1.000
    N1181    N        0.99518    0.77645    0.55722    1.000
    N1182    N        0.06441    0.80106    0.50137    1.000
    Si1183   Si       0.07290    0.82893    0.60399    1.000
    N1184    N        0.23790    0.80143    0.51072    1.000
    N1185    N        0.17822    0.79429    0.54490    1.000
    Si1186   Si       0.16366    0.82470    0.51666    1.000
    N1187    N        0.17273    0.80282    0.61664    1.000
    Si1188   Si       0.22083    0.77629    0.54213    1.000
    N1189    N        0.23190    0.77189    0.58373    1.000
    N1190    N        0.04971    0.78936    0.72745    1.000
    Si1191   Si       0.03411    0.78346    0.68688    1.000
    N1192    N        0.01170    0.81543    0.66792    1.000
    Si1193   Si       0.08745    0.80709    0.73266    1.000
    Si1194   Si       0.22972    0.82122    0.68113    1.000
    N1195    N        0.11704    0.77884    0.71469    1.000
    Si1196   Si       0.15642    0.79595    0.65901    1.000
    N1197    N        0.19599    0.79589    0.67726    1.000
    N1198    N        0.04029    0.78794    0.79502    1.000
    N1199    N        0.99870    0.78819    0.86036    1.000
    N1200    N        0.09514    0.82708    0.77300    1.000
    N1201    N        0.12416    0.80101    0.84062    1.000
    N1202    N        0.15263    0.78479    0.77694    1.000
    Si1203   Si       0.20312    0.79797    0.86076    1.000
    N1204    N        0.20462    0.80794    0.81982    1.000
    Si1205   Si       0.13013    0.81489    0.79808    1.000
    N1206    N        0.22121    0.77262    0.76398    1.000
    Si1207   Si       0.19061    0.77374    0.79472    1.000
    N1208    N        0.01763    0.79747    0.97808    1.000
    N1209    N        0.06526    0.81611    0.89570    1.000
    Si1210   Si       0.15022    0.80156    0.95761    1.000
    N1211    N        0.12825    0.82226    0.92568    1.000
    N1212    N        0.19551    0.79272    0.95073    1.000
    Si1213   Si       0.21461    0.77459    0.98431    1.000
    N1214    N        0.14861    0.82559    0.99423    1.000
    N1215    N        0.17909    0.82125    0.88777    1.000
    Si1216   Si       0.14154    0.79125    0.87927    1.000
    Si1217   Si       0.20792    0.82667    0.92294    1.000
    N1218    N        0.02605    0.86100    0.01291    1.000
    N1219    N        0.99410    0.86154    0.10851    1.000
    Si1220   Si       0.03017    0.88726    0.10962    1.000
    N1221    N        0.08669    0.88692    0.02470    1.000
    Si1222   Si       0.19521    0.87038    0.04942    1.000
    Si1223   Si       0.13524    0.84768    0.09454    1.000
    N1224    N        0.16608    0.84097    0.06099    1.000
    N1225    N        0.18392    0.88474    0.00853    1.000
    N1226    N        0.13185    0.89010    0.09291    1.000
    N1227    N        0.07400    0.85752    0.20693    1.000
    N1228    N        0.05889    0.86675    0.13651    1.000
    Si1229   Si       0.05040    0.87841    0.17777    1.000
    N1230    N        0.00666    0.88473    0.17956    1.000
    Si1231   Si       0.09844    0.86613    0.24247    1.000
    N1232    N        0.19080    0.88298    0.14124    1.000
    Si1233   Si       0.17173    0.87503    0.22674    1.000
    N1234    N        0.14715    0.83326    0.13478    1.000
    Si1235   Si       0.18216    0.84484    0.15506    1.000
    N1236    N        0.17309    0.84251    0.19761    1.000
    N1237    N        0.23734    0.87373    0.19868    1.000
    N1238    N        0.03551    0.87605    0.31766    1.000
    Si1239   Si       0.04702    0.83866    0.29687    1.000
    N1240    N        0.07758    0.83809    0.26867    1.000
    Si1241   Si       0.99390    0.86401    0.31202    1.000
    N1242    N        0.00560    0.83435    0.28220    1.000
    Si1243   Si       0.23816    0.87004    0.35690    1.000
    N1244    N        0.20869    0.83930    0.36739    1.000
    N1245    N        0.20296    0.88511    0.25796    1.000
    N1246    N        0.17631    0.84733    0.31135    1.000
    Si1247   Si       0.16892    0.84714    0.35364    1.000
    N1248    N        0.14193    0.85841    0.25322    1.000
    N1249    N        0.15182    0.88329    0.36927    1.000
    Si1250   Si       0.18664    0.88706    0.29762    1.000
    N1251    N        0.05328    0.84538    0.37587    1.000
    Si1252   Si       0.06739    0.86696    0.40864    1.000
    N1253    N        0.04985    0.85778    0.44604    1.000
    N1254    N        0.10951    0.85575    0.41081    1.000
    N1255    N        0.23362    0.87142    0.46088    1.000
    Si1256   Si       0.13898    0.88980    0.41064    1.000
    Si1257   Si       0.19213    0.85979    0.45488    1.000
    N1258    N        0.04393    0.84265    0.57413    1.000
    N1259    N        0.03164    0.87493    0.51057    1.000
    Si1260   Si       0.04808    0.88004    0.55015    1.000
    Si1261   Si       0.99398    0.85262    0.51055    1.000
    N1262    N        0.11399    0.84309    0.59603    1.000
    Si1263   Si       0.12243    0.86612    0.56126    1.000
    N1264    N        0.12360    0.83593    0.52971    1.000
    Si1265   Si       0.14946    0.84082    0.61887    1.000
    N1266    N        0.17413    0.85990    0.49450    1.000
    N1267    N        0.03176    0.88468    0.69244    1.000
    N1268    N        0.09121    0.84700    0.71385    1.000
    N1269    N        0.06494    0.84926    0.64342    1.000
    Si1270   Si       0.09763    0.86012    0.67208    1.000
    Si1271   Si       0.02510    0.85669    0.65811    1.000
    N1272    N        0.99395    0.87086    0.63291    1.000
    Si1273   Si       0.03532    0.88163    0.73650    1.000
    N1274    N        0.13292    0.83500    0.65905    1.000
    Si1275   Si       0.20927    0.87028    0.72967    1.000
    N1276    N        0.22970    0.83355    0.72257    1.000
    N1277    N        0.23305    0.85298    0.65270    1.000
    N1278    N        0.17388    0.87514    0.62226    1.000
    Si1279   Si       0.19879    0.87908    0.65603    1.000
    N1280    N        0.18285    0.87220    0.69654    1.000
    N1281    N        0.02630    0.84646    0.76466    1.000
    N1282    N        0.06730    0.84782    0.83190    1.000
    Si1283   Si       0.10001    0.86545    0.75089    1.000
    Si1284   Si       0.10821    0.86683    0.83598    1.000
    Si1285   Si       0.05537    0.82985    0.79308    1.000
    Si1286   Si       0.21889    0.84740    0.80436    1.000
    N1287    N        0.19738    0.86600    0.77123    1.000
    N1288    N        0.13969    0.85691    0.80819    1.000
    N1289    N        0.21903    0.87726    0.83479    1.000
    Si1290   Si       0.16107    0.88427    0.78348    1.000
    N1291    N        0.13768    0.88588    0.74797    1.000
    Si1292   Si       0.05367    0.85278    0.87351    1.000
    Si1293   Si       0.03076    0.83995    0.97525    1.000
    N1294    N        0.01914    0.87707    0.88054    1.000
    Si1295   Si       0.08561    0.88132    0.98204    1.000
    N1296    N        0.07422    0.87852    0.90669    1.000
    N1297    N        0.07218    0.84228    0.96336    1.000
    N1298    N        0.00663    0.86373    0.94662    1.000
    Si1299   Si       0.08966    0.83937    0.92400    1.000
    Si1300   Si       0.15506    0.85540    0.90612    1.000
    Si1301   Si       0.15837    0.86408    0.98063    1.000
    N1302    N        0.12393    0.86489    0.87798    1.000
    N1303    N        0.18057    0.85343    0.94387    1.000
    N1304    N        0.17838    0.89092    0.89092    1.000
    N1305    N        0.12522    0.88702    0.96731    1.000
    Si1306   Si       0.10116    0.90270    0.06374    1.000
    N1307    N        0.03387    0.93554    0.01633    1.000
    Si1308   Si       0.04471    0.89598    0.03306    1.000
    N1309    N        0.05677    0.89739    0.07552    1.000
    N1310    N        0.11062    0.94414    0.05830    1.000
    Si1311   Si       0.99205    0.93191    0.02610    1.000
    N1312    N        0.19758    0.90522    0.07463    1.000
    Si1313   Si       0.17027    0.90833    0.11246    1.000
    Si1314   Si       0.21095    0.94105    0.05247    1.000
    N1315    N        0.22246    0.94038    0.01109    1.000
    N1316    N        0.05839    0.92233    0.18084    1.000
    Si1317   Si       0.08195    0.93809    0.21402    1.000
    N1318    N        0.00708    0.91757    0.12892    1.000
    Si1319   Si       0.01757    0.93160    0.16753    1.000
    N1320    N        0.10240    0.90801    0.23861    1.000
    N1321    N        0.99215    0.94723    0.19795    1.000
    N1322    N        0.22822    0.93985    0.17007    1.000
    N1323    N        0.17914    0.91177    0.20468    1.000
    Si1324   Si       0.21136    0.90133    0.17660    1.000
    N1325    N        0.16783    0.94826    0.12912    1.000
    N1326    N        0.10806    0.93686    0.35533    1.000
    N1327    N        0.04434    0.94220    0.33462    1.000
    N1328    N        0.99316    0.94714    0.26888    1.000
    Si1329   Si       0.04084    0.90094    0.35217    1.000
    Si1330   Si       0.21625    0.93704    0.33808    1.000
    N1331    N        0.15069    0.91261    0.30286    1.000
    Si1332   Si       0.14803    0.92027    0.34591    1.000
    Si1333   Si       0.12468    0.92851    0.27138    1.000
    N1334    N        0.21776    0.89463    0.32819    1.000
    N1335    N        0.00223    0.90432    0.37027    1.000
    N1336    N        0.99083    0.89711    0.43294    1.000
    Si1337   Si       0.02229    0.92274    0.41294    1.000
    N1338    N        0.05888    0.90661    0.39238    1.000
    N1339    N        0.04278    0.92708    0.45321    1.000
    Si1340   Si       0.08875    0.93994    0.39479    1.000
    Si1341   Si       0.02611    0.88895    0.46840    1.000
    N1342    N        0.17180    0.89444    0.43719    1.000
    N1343    N        0.22812    0.94428    0.43213    1.000
    N1344    N        0.11404    0.92186    0.42511    1.000
    Si1345   Si       0.18958    0.93287    0.45009    1.000
    Si1346   Si       0.12039    0.94378    0.46184    1.000
    N1347    N        0.19773    0.91991    0.49251    1.000
    Si1348   Si       0.23426    0.89808    0.49428    1.000
    Si1349   Si       0.09925    0.93064    0.52929    1.000
    N1350    N        0.02225    0.90744    0.57141    1.000
    Si1351   Si       0.00204    0.90779    0.60861    1.000
    N1352    N        0.05740    0.94235    0.52058    1.000
    Si1353   Si       0.02805    0.94798    0.55264    1.000
    N1354    N        0.08994    0.89303    0.55207    1.000
    N1355    N        0.22401    0.91269    0.59086    1.000
    Si1356   Si       0.18006    0.90506    0.59144    1.000
    Si1357   Si       0.16282    0.89917    0.51106    1.000
    N1358    N        0.12930    0.92343    0.49803    1.000
    N1359    N        0.16057    0.88993    0.55468    1.000
    N1360    N        0.99094    0.94528    0.69584    1.000
    N1361    N        0.09691    0.94541    0.62291    1.000
    N1362    N        0.06594    0.94630    0.67782    1.000
    N1363    N        0.02391    0.93057    0.63622    1.000
    Si1364   Si       0.02679    0.92732    0.67962    1.000
    Si1365   Si       0.10717    0.93943    0.66561    1.000
    Si1366   Si       0.14792    0.89948    0.70869    1.000
    N1367    N        0.21130    0.92064    0.66019    1.000
    Si1368   Si       0.21135    0.93461    0.70238    1.000
    N1369    N        0.22974    0.90792    0.72963    1.000
    N1370    N        0.11493    0.89824    0.68005    1.000
    N1371    N        0.16789    0.93674    0.71048    1.000
    Si1372   Si       0.23591    0.93513    0.62783    1.000
    N1373    N        0.09612    0.90926    0.84564    1.000
    Si1374   Si       0.06807    0.94022    0.76552    1.000
    N1375    N        0.07191    0.89825    0.75596    1.000
    N1376    N        0.99896    0.89905    0.74739    1.000
    N1377    N        0.16914    0.91733    0.81066    1.000
    Si1378   Si       0.18703    0.90442    0.84941    1.000
    N1379    N        0.19783    0.94260    0.86738    1.000
    Si1380   Si       0.02452    0.93610    0.96943    1.000
    N1381    N        0.00917    0.92956    0.92688    1.000
    N1382    N        0.05523    0.90638    0.96238    1.000
    Si1383   Si       0.10632    0.90297    0.88829    1.000
    Si1384   Si       0.03301    0.89092    0.92368    1.000
    N1385    N        0.18137    0.92330    0.95197    1.000
    Si1386   Si       0.20969    0.91117    0.98211    1.000
    N1387    N        0.12235    0.93198    0.91583    1.000
    Si1388   Si       0.19622    0.92485    0.91149    1.000
    Si1389   Si       0.13942    0.92700    0.95739    1.000
    N1390    N        0.05454    0.97925    0.05908    1.000
    Si1391   Si       0.08958    0.97422    0.08590    1.000
    Si1392   Si       0.04941    0.98056    0.01501    1.000
    Si1393   Si       0.01497    0.99218    0.06313    1.000
    N1394    N        0.08528    0.00300    0.00391    1.000
    N1395    N        0.17543    0.96542    0.05250    1.000
    Si1396   Si       0.13836    0.96269    0.02994    1.000
    Si1397   Si       0.18371    0.00737    0.03899    1.000
    N1398    N        0.14358    0.00605    0.02289    1.000
    N1399    N        0.10040    0.96028    0.12490    1.000
    N1400    N        0.03324    0.97315    0.15320    1.000
    N1401    N        0.05384    0.96341    0.23377    1.000
    Si1402   Si       0.00972    0.96996    0.23313    1.000
    N1403    N        0.10680    0.96132    0.18670    1.000
    Si1404   Si       0.07364    0.95814    0.15711    1.000
    Si1405   Si       0.00662    0.00617    0.14331    1.000
    N1406    N        0.98959    0.00878    0.22462    1.000
    Si1407   Si       0.17803    0.95363    0.21992    1.000
    Si1408   Si       0.19872    0.96720    0.15414    1.000
    N1409    N        0.22365    0.99794    0.13348    1.000
    Si1410   Si       0.13456    0.96981    0.15232    1.000
    N1411    N        0.16874    0.97707    0.18525    1.000
    N1412    N        0.21210    0.97757    0.23602    1.000
    Si1413   Si       0.06849    0.98286    0.26848    1.000
    N1414    N        0.03289    0.99620    0.29083    1.000
    Si1415   Si       0.08371    0.95938    0.32999    1.000
    N1416    N        0.08691    0.00132    0.33719    1.000
    Si1417   Si       0.01330    0.95890    0.30766    1.000
    N1418    N        0.09205    0.95170    0.28837    1.000
    Si1419   Si       0.16729    0.98900    0.35362    1.000
    Si1420   Si       0.17800    0.98154    0.28366    1.000
    N1421    N        0.14860    0.99197    0.31482    1.000
    N1422    N        0.15425    0.95861    0.25410    1.000
    N1423    N        0.21155    0.95588    0.29790    1.000
    N1424    N        0.17912    0.94714    0.35804    1.000
    N1425    N        0.01713    0.98435    0.48597    1.000
    N1426    N        0.07057    0.98068    0.39772    1.000
    Si1427   Si       0.05268    0.95846    0.48050    1.000
    N1428    N        0.00488    0.96034    0.39971    1.000
    Si1429   Si       0.02997    0.99671    0.40123    1.000
    N1430    N        0.09173    0.97250    0.47501    1.000
    Si1431   Si       0.15554    0.00226    0.42988    1.000
    N1432    N        0.15964    0.96499    0.45154    1.000
    N1433    N        0.14274    0.99962    0.38885    1.000
    N1434    N        0.03716    0.97487    0.58639    1.000
    N1435    N        0.10952    0.96245    0.55555    1.000
    Si1436   Si       0.10646    0.00559    0.55863    1.000
    N1437    N        0.22514    0.96579    0.54426    1.000
    Si1438   Si       0.20050    0.97104    0.58036    1.000
    Si1439   Si       0.12671    0.96014    0.59551    1.000
    Si1440   Si       0.23297    0.99796    0.51236    1.000
    N1441    N        0.12901    0.00407    0.59694    1.000
    N1442    N        0.16740    0.94625    0.59271    1.000
    Si1443   Si       0.00979    0.98613    0.73811    1.000
    Si1444   Si       0.07738    0.97215    0.71138    1.000
    Si1445   Si       0.05508    0.95965    0.62867    1.000
    N1446    N        0.04226    0.95700    0.73412    1.000
    N1447    N        0.05360    0.00251    0.63920    1.000
    N1448    N        0.10224    0.96111    0.74653    1.000
    N1449    N        0.22676    0.97509    0.69492    1.000
    N1450    N        0.11958    0.97439    0.68837    1.000
    Si1451   Si       0.14508    0.97216    0.72910    1.000
    Si1452   Si       0.20112    0.00650    0.67992    1.000
    Si1453   Si       0.02659    0.98713    0.80608    1.000
    N1454    N        0.05474    0.95481    0.80431    1.000
    Si1455   Si       0.08470    0.94987    0.83380    1.000
    N1456    N        0.00653    0.97026    0.86550    1.000
    Si1457   Si       0.13973    0.00527    0.84341    1.000
    N1458    N        0.11866    0.97167    0.82378    1.000
    Si1459   Si       0.21361    0.97836    0.84927    1.000
    N1460    N        0.16627    0.97433    0.76756    1.000
    N1461    N        0.17875    0.99275    0.82544    1.000
    Si1462   Si       0.15405    0.95692    0.80655    1.000
    Si1463   Si       0.04219    0.99315    0.87548    1.000
    N1464    N        0.07722    0.96548    0.87550    1.000
    N1465    N        0.03861    0.97659    0.96933    1.000
    N1466    N        0.10414    0.99800    0.93961    1.000
    Si1467   Si       0.10918    0.97221    0.90550    1.000
    Si1468   Si       0.12340    0.99700    0.98044    1.000
    N1469    N        0.22925    0.99289    0.95033    1.000
    N1470    N        0.14008    0.99688    0.88594    1.000
    N1471    N        0.23320    0.99738    0.88278    1.000
    N1472    N        0.13011    0.95491    0.98837    1.000
    Si1473   Si       0.23490    0.97929    0.99076    1.000
    N1474    N        0.25659    0.02796    0.08453    1.000
    N1475    N        0.31273    0.04388    0.03818    1.000
    Si1476   Si       0.35319    0.04874    0.05803    1.000
    Si1477   Si       0.28004    0.06012    0.06596    1.000
    N1478    N        0.34976    0.04256    0.09888    1.000
    Si1479   Si       0.30387    0.00936    0.00972    1.000
    Si1480   Si       0.24209    0.04724    0.00406    1.000
    Si1481   Si       0.46574    0.05508    0.07088    1.000
    N1482    N        0.44721    0.01716    0.08159    1.000
    N1483    N        0.38438    0.02184    0.04005    1.000
    Si1484   Si       0.37145    0.02622    0.99989    1.000
    N1485    N        0.31952    0.02114    0.21021    1.000
    N1486    N        0.26810    0.04349    0.16301    1.000
    Si1487   Si       0.30376    0.05387    0.18548    1.000
    N1488    N        0.25051    0.03989    0.23630    1.000
    Si1489   Si       0.35880    0.01382    0.22465    1.000
    Si1490   Si       0.28203    0.00780    0.22772    1.000
    N1491    N        0.38932    0.01765    0.14963    1.000
    N1492    N        0.44076    0.05682    0.17326    1.000
    Si1493   Si       0.36639    0.05270    0.13736    1.000
    N1494    N        0.38747    0.04189    0.21006    1.000
    Si1495   Si       0.41613    0.02284    0.18439    1.000
    Si1496   Si       0.47992    0.06321    0.19003    1.000
    Si1497   Si       0.27823    0.02507    0.29523    1.000
    N1498    N        0.24785    0.05014    0.31726    1.000
    Si1499   Si       0.31507    0.01733    0.35927    1.000
    N1500    N        0.30144    0.05969    0.28255    1.000
    N1501    N        0.35313    0.01462    0.33686    1.000
    Si1502   Si       0.34490    0.06014    0.28042    1.000
    N1503    N        0.35783    0.02178    0.26775    1.000
    N1504    N        0.30130    0.05786    0.36536    1.000
    N1505    N        0.41713    0.03576    0.34906    1.000
    N1506    N        0.46467    0.04366    0.30332    1.000
    Si1507   Si       0.37489    0.05063    0.34795    1.000
    Si1508   Si       0.45477    0.05528    0.34448    1.000
    N1509    N        0.48562    0.04429    0.37260    1.000
    Si1510   Si       0.48752    0.00818    0.30722    1.000
    Si1511   Si       0.35107    0.03721    0.41883    1.000
    N1512    N        0.32606    0.02633    0.48974    1.000
    N1513    N        0.32095    0.06469    0.43436    1.000
    Si1514   Si       0.31652    0.06688    0.47734    1.000
    N1515    N        0.36854    0.06362    0.38833    1.000
    Si1516   Si       0.42508    0.04781    0.44303    1.000
    N1517    N        0.44596    0.05059    0.47932    1.000
    Si1518   Si       0.48565    0.02921    0.41339    1.000
    N1519    N        0.38411    0.03760    0.44967    1.000
    Si1520   Si       0.36941    0.02517    0.48767    1.000
    N1521    N        0.44432    0.01668    0.41986    1.000
    Si1522   Si       0.27673    0.04905    0.54099    1.000
    Si1523   Si       0.32924    0.01712    0.58992    1.000
    N1524    N        0.30563    0.05086    0.57364    1.000
    N1525    N        0.24399    0.06397    0.56532    1.000
    N1526    N        0.28022    0.06741    0.50344    1.000
    Si1527   Si       0.27334    0.06608    0.59858    1.000
    N1528    N        0.37867    0.05457    0.51928    1.000
    Si1529   Si       0.45383    0.02120    0.51233    1.000
    N1530    N        0.43248    0.02511    0.54933    1.000
    Si1531   Si       0.38935    0.03537    0.55617    1.000
    Si1532   Si       0.45706    0.01807    0.58376    1.000
    N1533    N        0.47511    0.05373    0.59583    1.000
    N1534    N        0.38332    0.06311    0.58867    1.000
    N1535    N        0.26894    0.02918    0.72548    1.000
    N1536    N        0.27503    0.03442    0.62719    1.000
    N1537    N        0.34517    0.02403    0.63008    1.000
    N1538    N        0.34921    0.04978    0.69016    1.000
    Si1539   Si       0.26936    0.03865    0.67416    1.000
    Si1540   Si       0.33374    0.01476    0.67076    1.000
    N1541    N        0.40749    0.02717    0.72379    1.000
    N1542    N        0.47673    0.02882    0.65770    1.000
    N1543    N        0.47370    0.01216    0.73195    1.000
    Si1544   Si       0.39182    0.05645    0.69682    1.000
    Si1545   Si       0.43628    0.01801    0.65327    1.000
    Si1546   Si       0.37252    0.05655    0.62973    1.000
    N1547    N        0.40741    0.05110    0.65574    1.000
    N1548    N        0.28900    0.02407    0.79090    1.000
    Si1549   Si       0.28576    0.05175    0.75814    1.000
    Si1550   Si       0.31903    0.01319    0.81873    1.000
    N1551    N        0.36109    0.02218    0.80566    1.000
    Si1552   Si       0.43930    0.03068    0.75087    1.000
    N1553    N        0.46980    0.04950    0.83656    1.000
    N1554    N        0.43212    0.01061    0.78904    1.000
    Si1555   Si       0.46101    0.00997    0.82248    1.000
    N1556    N        0.37717    0.06722    0.86523    1.000
    Si1557   Si       0.37453    0.06058    0.82161    1.000
    N1558    N        0.28309    0.04118    0.98630    1.000
    N1559    N        0.32812    0.03378    0.92105    1.000
    Si1560   Si       0.29368    0.05045    0.94387    1.000
    N1561    N        0.26331    0.05209    0.91687    1.000
    Si1562   Si       0.47882    0.04128    0.99562    1.000
    N1563    N        0.43436    0.04574    0.90406    1.000
    N1564    N        0.40369    0.02628    0.96977    1.000
    Si1565   Si       0.42255    0.05797    0.94914    1.000
    Si1566   Si       0.45263    0.00788    0.89614    1.000
    N1567    N        0.30095    0.08833    0.08877    1.000
    N1568    N        0.31909    0.11128    0.02522    1.000
    N1569    N        0.25191    0.07672    0.03784    1.000
    Si1570   Si       0.32888    0.11571    0.06696    1.000
    Si1571   Si       0.31163    0.07335    0.00223    1.000
    N1572    N        0.36589    0.09250    0.05853    1.000
    Si1573   Si       0.36651    0.10998    0.01348    1.000
    Si1574   Si       0.39577    0.09579    0.08918    1.000
    N1575    N        0.43173    0.08307    0.06845    1.000
    Si1576   Si       0.32219    0.11125    0.23130    1.000
    Si1577   Si       0.25112    0.08298    0.22758    1.000
    N1578    N        0.29219    0.08673    0.21096    1.000
    N1579    N        0.25904    0.10637    0.13762    1.000
    Si1580   Si       0.30296    0.09609    0.13236    1.000
    N1581    N        0.32919    0.07164    0.15542    1.000
    Si1582   Si       0.23903    0.07418    0.15788    1.000
    N1583    N        0.39680    0.10609    0.19462    1.000
    Si1584   Si       0.39143    0.08110    0.22871    1.000
    N1585    N        0.39544    0.08479    0.13087    1.000
    Si1586   Si       0.42353    0.09557    0.16302    1.000
    N1587    N        0.47490    0.10634    0.18891    1.000
    Si1588   Si       0.27886    0.09721    0.28854    1.000
    N1589    N        0.27344    0.11011    0.32976    1.000
    N1590    N        0.24227    0.10031    0.26590    1.000
    Si1591   Si       0.26337    0.07279    0.35032    1.000
    N1592    N        0.35466    0.08962    0.24810    1.000
    N1593    N        0.36628    0.07444    0.31446    1.000
    N1594    N        0.42661    0.08010    0.25376    1.000
    N1595    N        0.45416    0.09594    0.35559    1.000
    N1596    N        0.47957    0.11168    0.28809    1.000
    Si1597   Si       0.46461    0.07277    0.26900    1.000
    N1598    N        0.32536    0.11910    0.37397    1.000
    Si1599   Si       0.25168    0.09514    0.48618    1.000
    N1600    N        0.27447    0.10997    0.41125    1.000
    Si1601   Si       0.31080    0.08510    0.39841    1.000
    N1602    N        0.33572    0.10361    0.48913    1.000
    N1603    N        0.47643    0.11961    0.47440    1.000
    N1604    N        0.42894    0.08870    0.42775    1.000
    N1605    N        0.41000    0.10775    0.48839    1.000
    N1606    N        0.37462    0.12856    0.42603    1.000
    Si1607   Si       0.45929    0.12102    0.43341    1.000
    Si1608   Si       0.44959    0.09300    0.49469    1.000
    Si1609   Si       0.39192    0.09514    0.40348    1.000
    N1610    N        0.26808    0.10569    0.61342    1.000
    Si1611   Si       0.37381    0.09712    0.50963    1.000
    Si1612   Si       0.38751    0.10809    0.58026    1.000
    Si1613   Si       0.46937    0.08878    0.57007    1.000
    N1614    N        0.43161    0.10853    0.57703    1.000
    N1615    N        0.47446    0.08165    0.52753    1.000
    N1616    N        0.37102    0.12329    0.54454    1.000
    Si1617   Si       0.32429    0.08331    0.70103    1.000
    N1618    N        0.28837    0.07757    0.67948    1.000
    Si1619   Si       0.26917    0.10938    0.65639    1.000
    N1620    N        0.35313    0.09549    0.63825    1.000
    N1621    N        0.34122    0.12186    0.70186    1.000
    Si1622   Si       0.44664    0.10083    0.73528    1.000
    N1623    N        0.40744    0.09384    0.71360    1.000
    N1624    N        0.46798    0.11088    0.70032    1.000
    N1625    N        0.34128    0.08556    0.80669    1.000
    Si1626   Si       0.33392    0.10730    0.76903    1.000
    N1627    N        0.25866    0.08180    0.77230    1.000
    Si1628   Si       0.31659    0.10256    0.83740    1.000
    N1629    N        0.27359    0.11028    0.83438    1.000
    N1630    N        0.30984    0.06869    0.86373    1.000
    Si1631   Si       0.26373    0.11919    0.79456    1.000
    N1632    N        0.31852    0.07597    0.74373    1.000
    N1633    N        0.40978    0.08160    0.80836    1.000
    Si1634   Si       0.45155    0.07733    0.80646    1.000
    N1635    N        0.46757    0.11560    0.82399    1.000
    Si1636   Si       0.47224    0.12320    0.86763    1.000
    N1637    N        0.37493    0.12063    0.76037    1.000
    N1638    N        0.45497    0.06966    0.76353    1.000
    Si1639   Si       0.40692    0.12280    0.79107    1.000
    Si1640   Si       0.27067    0.08509    0.87710    1.000
    Si1641   Si       0.35410    0.09259    0.95258    1.000
    N1642    N        0.30936    0.08860    0.96121    1.000
    N1643    N        0.33781    0.10395    0.91184    1.000
    N1644    N        0.27242    0.11841    0.90569    1.000
    N1645    N        0.35837    0.07023    0.99468    1.000
    Si1646   Si       0.34206    0.06391    0.89101    1.000
    Si1647   Si       0.47072    0.11151    0.96495    1.000
    N1648    N        0.45920    0.06959    0.96841    1.000
    N1649    N        0.43420    0.11517    0.88882    1.000
    N1650    N        0.39150    0.08123    0.93315    1.000
    Si1651   Si       0.40946    0.08007    0.89275    1.000
    N1652    N        0.26593    0.14962    0.03636    1.000
    Si1653   Si       0.29780    0.14533    0.00824    1.000
    N1654    N        0.34105    0.15596    0.07856    1.000
    Si1655   Si       0.25267    0.17542    0.06859    1.000
    N1656    N        0.32671    0.17772    0.00538    1.000
    N1657    N        0.28027    0.17995    0.10080    1.000
    Si1658   Si       0.38171    0.16128    0.06102    1.000
    N1659    N        0.40748    0.13860    0.08726    1.000
    N1660    N        0.40106    0.13709    0.02661    1.000
    N1661    N        0.47492    0.13770    0.06417    1.000
    N1662    N        0.45360    0.17573    0.00617    1.000
    Si1663   Si       0.43467    0.12561    0.05460    1.000
    Si1664   Si       0.35490    0.18427    0.22673    1.000
    Si1665   Si       0.33529    0.16650    0.12234    1.000
    Si1666   Si       0.26780    0.14851    0.13132    1.000
    N1667    N        0.33907    0.14523    0.21166    1.000
    N1668    N        0.30934    0.13784    0.13815    1.000
    N1669    N        0.39197    0.17637    0.20617    1.000
    N1670    N        0.45408    0.15338    0.23886    1.000
    Si1671   Si       0.37450    0.14090    0.18611    1.000
    N1672    N        0.43950    0.13393    0.14562    1.000
    N1673    N        0.37305    0.15387    0.14555    1.000
    Si1674   Si       0.41065    0.15818    0.12560    1.000
    Si1675   Si       0.47819    0.13917    0.15874    1.000
    Si1676   Si       0.48699    0.13346    0.21935    1.000
    Si1677   Si       0.32211    0.16456    0.28158    1.000
    N1678    N        0.31838    0.16759    0.32467    1.000
    Si1679   Si       0.29572    0.14159    0.34972    1.000
    N1680    N        0.36231    0.17564    0.26867    1.000
    N1681    N        0.30370    0.12891    0.26906    1.000
    N1682    N        0.41809    0.14192    0.30627    1.000
    Si1683   Si       0.45536    0.14643    0.28268    1.000
    N1684    N        0.44742    0.16818    0.36466    1.000
    Si1685   Si       0.42837    0.13099    0.34727    1.000
    Si1686   Si       0.39691    0.17784    0.29392    1.000
    N1687    N        0.39138    0.12457    0.36845    1.000
    N1688    N        0.47736    0.18245    0.29768    1.000
    N1689    N        0.27314    0.16586    0.37700    1.000
    Si1690   Si       0.31200    0.13923    0.47657    1.000
    N1691    N        0.30963    0.16323    0.43876    1.000
    Si1692   Si       0.27213    0.15373    0.41850    1.000
    N1693    N        0.26756    0.13376    0.47626    1.000
    Si1694   Si       0.35794    0.14299    0.38946    1.000
    Si1695   Si       0.23848    0.16482    0.47384    1.000
    N1696    N        0.23669    0.17464    0.43136    1.000
    N1697    N        0.34862    0.18340    0.38745    1.000
    N1698    N        0.37767    0.16876    0.48637    1.000
    Si1699   Si       0.48485    0.17192    0.38683    1.000
    N1700    N        0.43176    0.15574    0.43830    1.000
    Si1701   Si       0.39896    0.14059    0.46174    1.000
    N1702    N        0.48694    0.13122    0.40349    1.000
    N1703    N        0.31875    0.16140    0.51421    1.000
    N1704    N        0.26616    0.15159    0.55831    1.000
    Si1705   Si       0.28419    0.18018    0.53262    1.000
    Si1706   Si       0.24516    0.13644    0.59175    1.000
    Si1707   Si       0.36056    0.16095    0.52696    1.000
    N1708    N        0.38953    0.14251    0.60766    1.000
    Si1709   Si       0.43563    0.14323    0.60289    1.000
    N1710    N        0.43200    0.18359    0.59012    1.000
    Si1711   Si       0.38953    0.18404    0.59491    1.000
    Si1712   Si       0.31751    0.15849    0.69342    1.000
    N1713    N        0.28294    0.14837    0.67055    1.000
    N1714    N        0.34233    0.17235    0.65954    1.000
    N1715    N        0.30678    0.17965    0.72828    1.000
    Si1716   Si       0.27060    0.18266    0.64827    1.000
    Si1717   Si       0.36432    0.13666    0.64658    1.000
    N1718    N        0.40033    0.14477    0.67328    1.000
    N1719    N        0.46071    0.13649    0.63353    1.000
    N1720    N        0.39018    0.17430    0.72803    1.000
    N1721    N        0.44836    0.17721    0.68829    1.000
    Si1722   Si       0.38268    0.13201    0.71799    1.000
    Si1723   Si       0.44427    0.13583    0.67346    1.000
    N1724    N        0.33577    0.13777    0.85236    1.000
    N1725    N        0.30182    0.13491    0.77994    1.000
    Si1726   Si       0.30606    0.17635    0.77073    1.000
    Si1727   Si       0.35367    0.16829    0.82538    1.000
    Si1728   Si       0.47467    0.14176    0.78966    1.000
    N1729    N        0.39562    0.15584    0.81628    1.000
    N1730    N        0.44120    0.12995    0.76463    1.000
    N1731    N        0.46329    0.18079    0.80290    1.000
    Si1732   Si       0.34502    0.14486    0.89553    1.000
    N1733    N        0.27799    0.14914    0.97071    1.000
    N1734    N        0.32458    0.16447    0.92900    1.000
    Si1735   Si       0.35006    0.17326    0.96741    1.000
    Si1736   Si       0.24561    0.15212    0.89858    1.000
    N1737    N        0.36158    0.12920    0.97416    1.000
    Si1738   Si       0.30010    0.12600    0.93955    1.000
    Si1739   Si       0.23402    0.15523    0.97537    1.000
    N1740    N        0.38453    0.15943    0.90247    1.000
    Si1741   Si       0.42161    0.14558    0.92009    1.000
    Si1742   Si       0.41737    0.15632    0.99082    1.000
    N1743    N        0.43338    0.13242    0.95953    1.000
    N1744    N        0.27724    0.23158    0.01433    1.000
    Si1745   Si       0.31749    0.21898    0.00548    1.000
    Si1746   Si       0.29215    0.21908    0.11771    1.000
    N1747    N        0.39560    0.20147    0.06090    1.000
    Si1748   Si       0.41574    0.22536    0.09548    1.000
    Si1749   Si       0.38142    0.24051    0.04835    1.000
    N1750    N        0.48672    0.23519    0.02767    1.000
    N1751    N        0.45135    0.24629    0.08426    1.000
    N1752    N        0.33406    0.21945    0.21421    1.000
    Si1753   Si       0.33793    0.23446    0.17280    1.000
    N1754    N        0.32980    0.20827    0.13764    1.000
    N1755    N        0.26597    0.22406    0.15148    1.000
    Si1756   Si       0.30496    0.23678    0.24360    1.000
    N1757    N        0.43644    0.21612    0.19858    1.000
    Si1758   Si       0.40481    0.20652    0.17157    1.000
    Si1759   Si       0.42905    0.18686    0.22996    1.000
    N1760    N        0.41928    0.20101    0.13058    1.000
    N1761    N        0.37983    0.24208    0.17030    1.000
    N1762    N        0.30315    0.20421    0.27313    1.000
    N1763    N        0.25202    0.20665    0.32553    1.000
    N1764    N        0.31890    0.23042    0.34292    1.000
    Si1765   Si       0.29388    0.20632    0.31485    1.000
    Si1766   Si       0.34696    0.19765    0.34658    1.000
    Si1767   Si       0.24322    0.19580    0.36544    1.000
    Si1768   Si       0.42209    0.20365    0.35824    1.000
    N1769    N        0.42326    0.20081    0.26968    1.000
    Si1770   Si       0.45549    0.21852    0.29576    1.000
    N1771    N        0.38738    0.19377    0.33349    1.000
    N1772    N        0.44676    0.23151    0.33602    1.000
    Si1773   Si       0.32772    0.19750    0.42269    1.000
    N1774    N        0.29887    0.22856    0.42693    1.000
    Si1775   Si       0.25437    0.23759    0.49168    1.000
    N1776    N        0.35706    0.22484    0.44342    1.000
    N1777    N        0.24280    0.23331    0.38638    1.000
    N1778    N        0.48547    0.21169    0.49104    1.000
    N1779    N        0.48093    0.20344    0.41878    1.000
    N1780    N        0.41448    0.21337    0.39905    1.000
    Si1781   Si       0.44053    0.19660    0.43263    1.000
    Si1782   Si       0.38428    0.24025    0.41291    1.000
    Si1783   Si       0.38059    0.21302    0.47750    1.000
    N1784    N        0.42323    0.21608    0.46721    1.000
    N1785    N        0.30195    0.21735    0.54857    1.000
    Si1786   Si       0.27848    0.22187    0.58541    1.000
    N1787    N        0.25150    0.19348    0.50356    1.000
    N1788    N        0.29680    0.19836    0.61649    1.000
    N1789    N        0.36066    0.23807    0.50966    1.000
    Si1790   Si       0.45465    0.21332    0.56846    1.000
    N1791    N        0.42797    0.22581    0.53548    1.000
    Si1792   Si       0.38549    0.23235    0.54468    1.000
    N1793    N        0.37241    0.19210    0.55494    1.000
    N1794    N        0.37408    0.21684    0.61681    1.000
    Si1795   Si       0.44758    0.23084    0.49914    1.000
    Si1796   Si       0.33481    0.20736    0.63697    1.000
    N1797    N        0.27765    0.21343    0.67821    1.000
    Si1798   Si       0.27524    0.21232    0.72897    1.000
    N1799    N        0.33684    0.24475    0.65862    1.000
    Si1800   Si       0.40532    0.18620    0.68965    1.000
    Si1801   Si       0.48146    0.20411    0.67795    1.000
    N1802    N        0.39662    0.22732    0.67902    1.000
    N1803    N        0.36119    0.23957    0.73982    1.000
    N1804    N        0.27271    0.20613    0.77513    1.000
    N1805    N        0.29758    0.22537    0.83811    1.000
    Si1806   Si       0.33468    0.23264    0.85936    1.000
    Si1807   Si       0.26232    0.21211    0.86274    1.000
    N1808    N        0.34394    0.18754    0.78746    1.000
    N1809    N        0.36000    0.19884    0.85524    1.000
    Si1810   Si       0.28595    0.24115    0.80050    1.000
    Si1811   Si       0.37491    0.20042    0.76047    1.000
    N1812    N        0.40629    0.21681    0.78715    1.000
    N1813    N        0.42815    0.20433    0.85852    1.000
    Si1814   Si       0.42318    0.18930    0.81539    1.000
    N1815    N        0.32025    0.23885    0.90099    1.000
    Si1816   Si       0.29944    0.20510    0.92641    1.000
    N1817    N        0.26151    0.22728    0.94579    1.000
    N1818    N        0.32696    0.21920    0.95955    1.000
    Si1819   Si       0.24356    0.22832    0.98767    1.000
    N1820    N        0.27298    0.18537    0.89384    1.000
    N1821    N        0.38610    0.23056    0.91055    1.000
    N1822    N        0.44270    0.23681    0.96919    1.000
    N1823    N        0.43821    0.18812    0.91798    1.000
    Si1824   Si       0.41274    0.21456    0.94318    1.000
    Si1825   Si       0.46341    0.20001    0.88639    1.000
    Si1826   Si       0.39366    0.19811    0.88311    1.000
    N1827    N        0.39251    0.18818    0.97137    1.000
    Si1828   Si       0.47246    0.21094    0.99342    1.000
    N1829    N        0.25313    0.28684    0.04826    1.000
    Si1830   Si       0.30839    0.29130    0.08652    1.000
    N1831    N        0.29301    0.25027    0.08605    1.000
    Si1832   Si       0.34565    0.28938    0.01312    1.000
    Si1833   Si       0.26387    0.24612    0.05306    1.000
    N1834    N        0.34654    0.24688    0.02417    1.000
    N1835    N        0.38502    0.25502    0.08818    1.000
    Si1836   Si       0.46022    0.26525    0.04644    1.000
    Si1837   Si       0.38027    0.29124    0.10944    1.000
    N1838    N        0.41981    0.25523    0.02911    1.000
    N1839    N        0.33960    0.29753    0.12036    1.000
    N1840    N        0.31062    0.27058    0.17575    1.000
    Si1841   Si       0.27130    0.25619    0.18183    1.000
    N1842    N        0.26568    0.24299    0.22294    1.000
    Si1843   Si       0.45611    0.29576    0.14340    1.000
    N1844    N        0.43319    0.28322    0.20109    1.000
    N1845    N        0.47278    0.25641    0.14860    1.000
    Si1846   Si       0.46319    0.24736    0.19168    1.000
    N1847    N        0.41236    0.29386    0.13972    1.000
    Si1848   Si       0.39723    0.28085    0.17749    1.000
    Si1849   Si       0.33903    0.26750    0.34989    1.000
    N1850    N        0.30507    0.27731    0.25704    1.000
    Si1851   Si       0.25926    0.28476    0.25362    1.000
    N1852    N        0.24979    0.27348    0.29557    1.000
    N1853    N        0.35485    0.27089    0.31041    1.000
    Si1854   Si       0.46338    0.28734    0.27725    1.000
    Si1855   Si       0.46421    0.27374    0.35021    1.000
    N1856    N        0.42103    0.29290    0.28906    1.000
    N1857    N        0.48016    0.24778    0.27489    1.000
    N1858    N        0.42965    0.29845    0.36152    1.000
    Si1859   Si       0.26258    0.25067    0.41971    1.000
    N1860    N        0.27860    0.29134    0.41615    1.000
    N1861    N        0.33612    0.29357    0.45608    1.000
    Si1862   Si       0.32351    0.25276    0.45678    1.000
    N1863    N        0.29616    0.24549    0.49001    1.000
    N1864    N        0.47801    0.29756    0.44526    1.000
    Si1865   Si       0.44171    0.28995    0.46355    1.000
    Si1866   Si       0.39646    0.29747    0.38878    1.000
    N1867    N        0.40698    0.27625    0.42805    1.000
    N1868    N        0.37038    0.26350    0.37959    1.000
    N1869    N        0.46176    0.27119    0.49817    1.000
    N1870    N        0.28118    0.26510    0.59337    1.000
    N1871    N        0.31896    0.29021    0.54037    1.000
    Si1872   Si       0.32011    0.24857    0.52602    1.000
    Si1873   Si       0.35563    0.30037    0.56168    1.000
    Si1874   Si       0.48965    0.29386    0.58951    1.000
    N1875    N        0.38730    0.27027    0.56649    1.000
    Si1876   Si       0.42035    0.27720    0.59178    1.000
    N1877    N        0.45336    0.24691    0.59677    1.000
    Si1878   Si       0.24974    0.27712    0.62100    1.000
    N1879    N        0.27089    0.27586    0.66551    1.000
    Si1880   Si       0.30227    0.24990    0.68068    1.000
    N1881    N        0.29890    0.24987    0.72546    1.000
    N1882    N        0.25234    0.29819    0.74199    1.000
    Si1883   Si       0.38947    0.25671    0.71229    1.000
    N1884    N        0.42761    0.25799    0.73324    1.000
    N1885    N        0.46590    0.24395    0.67550    1.000
    Si1886   Si       0.37965    0.24881    0.64555    1.000
    Si1887   Si       0.47506    0.24693    0.63388    1.000
    N1888    N        0.38195    0.29489    0.69523    1.000
    Si1889   Si       0.45910    0.27093    0.70813    1.000
    N1890    N        0.40568    0.27855    0.63196    1.000
    N1891    N        0.31621    0.26947    0.78954    1.000
    Si1892   Si       0.25170    0.28160    0.85131    1.000
    N1893    N        0.25396    0.26957    0.80866    1.000
    N1894    N        0.29545    0.29346    0.85646    1.000
    Si1895   Si       0.31291    0.30306    0.81736    1.000
    Si1896   Si       0.33099    0.26908    0.75008    1.000
    N1897    N        0.36536    0.26234    0.85401    1.000
    Si1898   Si       0.42589    0.25341    0.77531    1.000
    N1899    N        0.47581    0.28827    0.85520    1.000
    N1900    N        0.40763    0.28840    0.79778    1.000
    Si1901   Si       0.38363    0.29285    0.83185    1.000
    N1902    N        0.46565    0.25102    0.78923    1.000
    Si1903   Si       0.48593    0.28294    0.76984    1.000
    N1904    N        0.24891    0.24905    0.88017    1.000
    N1905    N        0.28217    0.29145    0.92307    1.000
    N1906    N        0.35477    0.28958    0.91391    1.000
    Si1907   Si       0.25086    0.26258    0.92067    1.000
    Si1908   Si       0.31365    0.28274    0.89362    1.000
    Si1909   Si       0.35168    0.24838    0.93726    1.000
    N1910    N        0.32691    0.30102    0.97651    1.000
    N1911    N        0.44200    0.30053    0.97678    1.000
    Si1912   Si       0.41503    0.26929    0.98839    1.000
    N1913    N        0.38047    0.25853    0.96751    1.000
    N1914    N        0.43516    0.27600    0.91298    1.000
    Si1915   Si       0.45925    0.27218    0.94785    1.000
    Si1916   Si       0.39176    0.27246    0.89244    1.000
    N1917    N        0.27833    0.31894    0.09913    1.000
    Si1918   Si       0.24020    0.31458    0.08083    1.000
    N1919    N        0.33342    0.30600    0.05329    1.000
    Si1920   Si       0.36899    0.33391    0.04943    1.000
    Si1921   Si       0.47092    0.32506    0.00144    1.000
    N1922    N        0.39253    0.32591    0.08454    1.000
    Si1923   Si       0.42202    0.34495    0.10914    1.000
    N1924    N        0.46117    0.32174    0.10836    1.000
    N1925    N        0.38417    0.31519    0.01080    1.000
    N1926    N        0.47174    0.30719    0.04075    1.000
    Si1927   Si       0.27588    0.35366    0.12442    1.000
    N1928    N        0.31719    0.33923    0.22483    1.000
    N1929    N        0.30528    0.34566    0.15740    1.000
    Si1930   Si       0.32888    0.30804    0.16042    1.000
    Si1931   Si       0.35884    0.33497    0.21823    1.000
    N1932    N        0.44047    0.35884    0.21327    1.000
    N1933    N        0.48046    0.31764    0.17401    1.000
    N1934    N        0.36481    0.30734    0.18594    1.000
    Si1935   Si       0.45491    0.31923    0.21035    1.000
    N1936    N        0.47635    0.31345    0.24547    1.000
    N1937    N        0.31637    0.34076    0.29777    1.000
    Si1938   Si       0.33343    0.33504    0.33783    1.000
    N1939    N        0.24978    0.35148    0.31842    1.000
    Si1940   Si       0.31955    0.31762    0.26215    1.000
    N1941    N        0.25518    0.32588    0.25574    1.000
    N1942    N        0.31354    0.30152    0.35657    1.000
    N1943    N        0.36324    0.31556    0.25639    1.000
    N1944    N        0.37679    0.32914    0.32688    1.000
    Si1945   Si       0.43293    0.31855    0.32272    1.000
    Si1946   Si       0.37830    0.30024    0.29312    1.000
    N1947    N        0.47542    0.30411    0.31798    1.000
    N1948    N        0.31062    0.35730    0.44177    1.000
    N1949    N        0.26842    0.35101    0.38197    1.000
    N1950    N        0.27447    0.31697    0.48473    1.000
    Si1951   Si       0.29825    0.31385    0.44879    1.000
    Si1952   Si       0.27392    0.30706    0.37770    1.000
    N1953    N        0.37889    0.32885    0.41076    1.000
    Si1954   Si       0.37716    0.30442    0.44814    1.000
    N1955    N        0.40674    0.31083    0.48011    1.000
    N1956    N        0.27410    0.33401    0.55613    1.000
    Si1957   Si       0.29996    0.32425    0.51996    1.000
    N1958    N        0.33736    0.31813    0.59680    1.000
    Si1959   Si       0.29631    0.30548    0.58403    1.000
    N1960    N        0.27020    0.31982    0.61985    1.000
    N1961    N        0.37531    0.33240    0.54144    1.000
    Si1962   Si       0.45974    0.34026    0.54960    1.000
    Si1963   Si       0.39723    0.34431    0.50653    1.000
    N1964    N        0.44969    0.30681    0.57640    1.000
    N1965    N        0.43375    0.36032    0.52030    1.000
    N1966    N        0.49107    0.33040    0.52160    1.000
    Si1967   Si       0.28196    0.32032    0.66072    1.000
    N1968    N        0.32535    0.32093    0.66362    1.000
    Si1969   Si       0.34855    0.33848    0.63294    1.000
    Si1970   Si       0.28304    0.32425    0.72926    1.000
    Si1971   Si       0.34886    0.32133    0.70000    1.000
    N1972    N        0.26252    0.34003    0.69131    1.000
    N1973    N        0.32301    0.30744    0.73131    1.000
    Si1974   Si       0.40963    0.30972    0.66464    1.000
    N1975    N        0.39320    0.34223    0.64196    1.000
    N1976    N        0.44567    0.30872    0.68898    1.000
    Si1977   Si       0.46402    0.33609    0.72119    1.000
    N1978    N        0.28511    0.32830    0.79759    1.000
    N1979    N        0.35302    0.32128    0.82404    1.000
    Si1980   Si       0.24965    0.30590    0.78531    1.000
    Si1981   Si       0.48777    0.31956    0.82925    1.000
    N1982    N        0.45282    0.33882    0.81737    1.000
    Si1983   Si       0.42763    0.32451    0.78397    1.000
    N1984    N        0.45881    0.31323    0.75651    1.000
    N1985    N        0.40933    0.35786    0.76415    1.000
    N1986    N        0.40812    0.30439    0.86663    1.000
    Si1987   Si       0.28988    0.31590    0.95697    1.000
    N1988    N        0.31493    0.34542    0.93556    1.000
    Si1989   Si       0.34993    0.32190    0.94471    1.000
    N1990    N        0.25857    0.32485    0.98583    1.000
    N1991    N        0.38567    0.34806    0.94867    1.000
    Si1992   Si       0.44709    0.30610    0.88165    1.000
    Si1993   Si       0.41151    0.33450    0.98146    1.000
    N1994    N        0.46396    0.34044    0.90051    1.000
    N1995    N        0.44466    0.35886    0.99673    1.000
    Si1996   Si       0.32043    0.39969    0.03429    1.000
    N1997    N        0.28269    0.37748    0.02852    1.000
    N1998    N        0.28411    0.38806    0.09871    1.000
    Si1999   Si       0.25928    0.38582    0.06366    1.000
    N2000    N        0.35130    0.37307    0.04381    1.000
    N2001    N        0.48228    0.40057    0.04139    1.000
    N2002    N        0.42886    0.38399    0.09067    1.000
    Si2003   Si       0.45406    0.41236    0.07143    1.000
    Si2004   Si       0.46870    0.39661    0.00105    1.000
    N2005    N        0.31039    0.40709    0.20639    1.000
    N2006    N        0.25657    0.37180    0.20303    1.000
    Si2007   Si       0.35439    0.41144    0.21807    1.000
    Si2008   Si       0.29810    0.36504    0.19573    1.000
    Si2009   Si       0.24053    0.36604    0.24422    1.000
    Si2010   Si       0.41077    0.37706    0.18877    1.000
    N2011    N        0.41508    0.36307    0.14699    1.000
    Si2012   Si       0.47196    0.38504    0.22858    1.000
    N2013    N        0.41975    0.41769    0.17246    1.000
    N2014    N        0.48089    0.41650    0.20094    1.000
    N2015    N        0.37348    0.37487    0.20861    1.000
    Si2016   Si       0.42414    0.40486    0.12964    1.000
    N2017    N        0.26850    0.39363    0.26293    1.000
    N2018    N        0.29809    0.40256    0.32345    1.000
    Si2019   Si       0.33497    0.40288    0.34268    1.000
    Si2020   Si       0.28339    0.36973    0.29784    1.000
    Si2021   Si       0.24147    0.36950    0.35606    1.000
    N2022    N        0.24301    0.41548    0.35505    1.000
    N2023    N        0.36723    0.40112    0.31307    1.000
    N2024    N        0.46373    0.40202    0.26714    1.000
    Si2025   Si       0.45710    0.38872    0.30616    1.000
    Si2026   Si       0.39239    0.37018    0.32782    1.000
    N2027    N        0.40348    0.37906    0.36972    1.000
    N2028    N        0.44227    0.41948    0.33361    1.000
    N2029    N        0.42807    0.35674    0.30722    1.000
    N2030    N        0.33510    0.36785    0.37068    1.000
    Si2031   Si       0.29943    0.37215    0.40201    1.000
    Si2032   Si       0.33002    0.37724    0.47442    1.000
    N2033    N        0.28510    0.41288    0.40836    1.000
    N2034    N        0.25533    0.42561    0.47703    1.000
    Si2035   Si       0.36987    0.36871    0.39600    1.000
    N2036    N        0.37407    0.37272    0.48255    1.000
    N2037    N        0.46971    0.40572    0.39775    1.000
    N2038    N        0.37618    0.40493    0.42109    1.000
    Si2039   Si       0.47915    0.40222    0.44100    1.000
    Si2040   Si       0.43145    0.41101    0.37426    1.000
    Si2041   Si       0.39668    0.40258    0.45924    1.000
    N2042    N        0.44160    0.40300    0.46574    1.000
    Si2043   Si       0.28705    0.37883    0.54779    1.000
    N2044    N        0.31099    0.40254    0.57342    1.000
    N2045    N        0.25010    0.40169    0.53880    1.000
    Si2046   Si       0.32049    0.41154    0.61557    1.000
    N2047    N        0.31175    0.36614    0.51250    1.000
    N2048    N        0.23556    0.40945    0.61160    1.000
    Si2049   Si       0.45366    0.39719    0.50629    1.000
    N2050    N        0.46770    0.37215    0.57717    1.000
    N2051    N        0.41316    0.40443    0.60332    1.000
    Si2052   Si       0.44670    0.40991    0.57764    1.000
    Si2053   Si       0.25188    0.37697    0.71113    1.000
    N2054    N        0.33605    0.38086    0.64193    1.000
    N2055    N        0.27057    0.40494    0.68201    1.000
    Si2056   Si       0.35922    0.38970    0.67893    1.000
    N2057    N        0.28385    0.36615    0.74323    1.000
    N2058    N        0.36114    0.36048    0.71026    1.000
    Si2059   Si       0.41967    0.37651    0.63568    1.000
    N2060    N        0.39667    0.40374    0.66152    1.000
    Si2061   Si       0.46947    0.39614    0.68220    1.000
    N2062    N        0.39040    0.41651    0.74239    1.000
    N2063    N        0.45029    0.37732    0.71626    1.000
    N2064    N        0.46231    0.37395    0.64437    1.000
    N2065    N        0.28246    0.39797    0.80968    1.000
    N2066    N        0.33794    0.38779    0.85269    1.000
    Si2067   Si       0.29775    0.40383    0.85020    1.000
    N2068    N        0.34141    0.37345    0.78139    1.000
    Si2069   Si       0.29854    0.36907    0.78250    1.000
    Si2070   Si       0.35727    0.36246    0.82038    1.000
    Si2071   Si       0.44126    0.37974    0.82303    1.000
    N2072    N        0.39665    0.38117    0.83098    1.000
    Si2073   Si       0.37550    0.40727    0.85792    1.000
    N2074    N        0.45335    0.40519    0.78956    1.000
    N2075    N        0.46070    0.39305    0.85893    1.000
    Si2076   Si       0.43327    0.40070    0.75007    1.000
    Si2077   Si       0.37174    0.37684    0.75096    1.000
    N2078    N        0.28042    0.39434    0.88919    1.000
    N2079    N        0.33869    0.40909    0.93307    1.000
    N2080    N        0.27188    0.38872    0.95747    1.000
    Si2081   Si       0.30261    0.38530    0.92583    1.000
    Si2082   Si       0.25843    0.36715    0.99311    1.000
    Si2083   Si       0.37912    0.38867    0.93198    1.000
    N2084    N        0.39677    0.40192    0.89618    1.000
    Si2085   Si       0.43758    0.41709    0.88684    1.000
    Si2086   Si       0.32256    0.46242    0.02809    1.000
    Si2087   Si       0.29609    0.42960    0.10114    1.000
    N2088    N        0.31456    0.43435    0.06178    1.000
    N2089    N        0.26158    0.45367    0.11676    1.000
    N2090    N        0.32740    0.42697    0.00012    1.000
    N2091    N        0.24034    0.42431    0.05783    1.000
    N2092    N        0.42750    0.44307    0.05392    1.000
    Si2093   Si       0.45046    0.46522    0.02359    1.000
    N2094    N        0.45779    0.43665    0.10718    1.000
    Si2095   Si       0.42150    0.45991    0.09223    1.000
    N2096    N        0.39607    0.43854    0.11830    1.000
    Si2097   Si       0.31748    0.43808    0.17487    1.000
    N2098    N        0.32623    0.43562    0.13232    1.000
    N2099    N        0.28345    0.46413    0.17947    1.000
    N2100    N        0.35891    0.44517    0.18719    1.000
    N2101    N        0.29907    0.46414    0.24150    1.000
    Si2102   Si       0.27790    0.42535    0.23212    1.000
    Si2103   Si       0.36625    0.45312    0.14318    1.000
    Si2104   Si       0.25516    0.47919    0.15065    1.000
    N2105    N        0.46552    0.47260    0.16214    1.000
    N2106    N        0.42891    0.46542    0.21870    1.000
    Si2107   Si       0.45097    0.44345    0.18847    1.000
    Si2108   Si       0.38554    0.46600    0.21557    1.000
    N2109    N        0.33036    0.45716    0.30314    1.000
    N2110    N        0.26044    0.45363    0.29264    1.000
    N2111    N        0.28540    0.46942    0.35551    1.000
    Si2112   Si       0.27244    0.43590    0.32922    1.000
    Si2113   Si       0.32861    0.46848    0.34452    1.000
    N2114    N        0.34493    0.43604    0.36647    1.000
    Si2115   Si       0.29615    0.47575    0.28229    1.000
    Si2116   Si       0.36632    0.43883    0.28987    1.000
    N2117    N        0.39641    0.46710    0.30995    1.000
    Si2118   Si       0.43710    0.45985    0.32084    1.000
    N2119    N        0.45795    0.46609    0.28393    1.000
    N2120    N        0.37193    0.43738    0.24743    1.000
    Si2121   Si       0.48745    0.43816    0.26639    1.000
    Si2122   Si       0.26255    0.44635    0.38859    1.000
    Si2123   Si       0.28725    0.43057    0.44874    1.000
    N2124    N        0.28538    0.47076    0.43332    1.000
    Si2125   Si       0.35064    0.44847    0.49101    1.000
    N2126    N        0.32502    0.41932    0.46967    1.000
    Si2127   Si       0.37017    0.44276    0.40139    1.000
    N2128    N        0.44760    0.47662    0.43260    1.000
    N2129    N        0.39004    0.44518    0.47205    1.000
    N2130    N        0.41075    0.44934    0.38634    1.000
    Si2131   Si       0.33839    0.43861    0.56379    1.000
    N2132    N        0.35547    0.43636    0.60594    1.000
    N2133    N        0.31150    0.47075    0.56467    1.000
    Si2134   Si       0.28920    0.47501    0.60351    1.000
    N2135    N        0.36578    0.44136    0.53088    1.000
    Si2136   Si       0.40802    0.45332    0.53061    1.000
    N2137    N        0.47414    0.43714    0.59757    1.000
    N2138    N        0.43652    0.42248    0.53731    1.000
    N2139    N        0.29659    0.44427    0.63377    1.000
    Si2140   Si       0.30181    0.43805    0.67788    1.000
    N2141    N        0.28843    0.47238    0.70167    1.000
    N2142    N        0.34255    0.42896    0.69088    1.000
    N2143    N        0.34729    0.47604    0.74013    1.000
    N2144    N        0.45988    0.43806    0.67069    1.000
    N2145    N        0.40455    0.47170    0.70137    1.000
    N2146    N        0.45528    0.44025    0.73843    1.000
    Si2147   Si       0.47555    0.45935    0.63692    1.000
    Si2148   Si       0.38930    0.43316    0.63025    1.000
    Si2149   Si       0.44714    0.46335    0.70388    1.000
    Si2150   Si       0.37176    0.44773    0.71926    1.000
    N2151    N        0.40166    0.47542    0.63435    1.000
    N2152    N        0.29904    0.44718    0.84269    1.000
    Si2153   Si       0.33666    0.46948    0.84790    1.000
    Si2154   Si       0.27398    0.44179    0.80563    1.000
    N2155    N        0.28870    0.46372    0.77356    1.000
    Si2156   Si       0.47180    0.44553    0.77922    1.000
    N2157    N        0.37514    0.44753    0.83974    1.000
    Si2158   Si       0.41483    0.47039    0.83532    1.000
    N2159    N        0.44848    0.47176    0.80616    1.000
    Si2160   Si       0.25822    0.43000    0.95373    1.000
    N2161    N        0.28486    0.45880    0.93046    1.000
    Si2162   Si       0.35027    0.43621    0.96545    1.000
    N2163    N        0.24295    0.44090    0.99147    1.000
    N2164    N        0.45193    0.43659    0.99262    1.000
    N2165    N        0.43406    0.45813    0.87191    1.000
    N2166    N        0.45908    0.42791    0.92249    1.000
    Si2167   Si       0.45570    0.47330    0.90896    1.000
    Si2168   Si       0.43152    0.43729    0.95573    1.000
    N2169    N        0.39271    0.41901    0.96133    1.000
    N2170    N        0.29088    0.49168    0.02626    1.000
    Si2171   Si       0.29497    0.53469    0.02565    1.000
    Si2172   Si       0.25425    0.47926    0.00575    1.000
    N2173    N        0.35856    0.48563    0.02306    1.000
    Si2174   Si       0.39460    0.50295    0.04354    1.000
    N2175    N        0.42992    0.50205    0.01798    1.000
    N2176    N        0.40549    0.50014    0.08532    1.000
    Si2177   Si       0.44994    0.53715    0.00503    1.000
    Si2178   Si       0.29181    0.49256    0.20975    1.000
    N2179    N        0.25888    0.52153    0.14668    1.000
    N2180    N        0.31286    0.52434    0.18593    1.000
    Si2181   Si       0.35510    0.52378    0.17853    1.000
    N2182    N        0.26181    0.51758    0.22559    1.000
    Si2183   Si       0.39291    0.52198    0.12189    1.000
    N2184    N        0.42605    0.52903    0.14944    1.000
    N2185    N        0.36506    0.49705    0.14503    1.000
    N2186    N        0.37545    0.50852    0.21283    1.000
    Si2187   Si       0.46122    0.51559    0.16916    1.000
    N2188    N        0.47082    0.51602    0.21262    1.000
    Si2189   Si       0.45478    0.48936    0.24623    1.000
    N2190    N        0.29487    0.51449    0.30302    1.000
    N2191    N        0.35265    0.50415    0.34656    1.000
    Si2192   Si       0.27507    0.51035    0.34260    1.000
    N2193    N        0.35820    0.52031    0.27909    1.000
    N2194    N        0.29763    0.53733    0.36671    1.000
    N2195    N        0.42586    0.52173    0.25899    1.000
    Si2196   Si       0.38016    0.50750    0.31511    1.000
    N2197    N        0.45365    0.48743    0.35064    1.000
    Si2198   Si       0.48122    0.52142    0.34288    1.000
    Si2199   Si       0.38508    0.53348    0.24808    1.000
    N2200    N        0.48303    0.53508    0.29860    1.000
    N2201    N        0.30426    0.52930    0.44982    1.000
    Si2202   Si       0.31994    0.49054    0.44924    1.000
    Si2203   Si       0.25179    0.49896    0.42694    1.000
    N2204    N        0.35343    0.47790    0.42227    1.000
    Si2205   Si       0.27306    0.53399    0.48221    1.000
    N2206    N        0.32590    0.48368    0.49287    1.000
    N2207    N        0.39724    0.51180    0.45470    1.000
    Si2208   Si       0.41810    0.47593    0.46426    1.000
    Si2209   Si       0.43444    0.48519    0.39050    1.000
    Si2210   Si       0.37607    0.51604    0.41926    1.000
    N2211    N        0.40910    0.52018    0.39022    1.000
    Si2212   Si       0.31249    0.49908    0.53197    1.000
    N2213    N        0.27521    0.52075    0.52475    1.000
    N2214    N        0.33789    0.52954    0.54573    1.000
    Si2215   Si       0.24414    0.52027    0.55647    1.000
    N2216    N        0.25002    0.48806    0.58525    1.000
    Si2217   Si       0.42214    0.51581    0.54465    1.000
    N2218    N        0.46693    0.52377    0.53860    1.000
    Si2219   Si       0.42182    0.49852    0.60306    1.000
    Si2220   Si       0.47814    0.49370    0.51117    1.000
    N2221    N        0.43515    0.47933    0.50542    1.000
    N2222    N        0.41337    0.47805    0.56583    1.000
    N2223    N        0.41653    0.53652    0.58773    1.000
    N2224    N        0.29988    0.51322    0.62137    1.000
    Si2225   Si       0.32048    0.49936    0.71670    1.000
    Si2226   Si       0.25836    0.50104    0.69294    1.000
    Si2227   Si       0.31736    0.52904    0.65818    1.000
    N2228    N        0.34470    0.50178    0.67853    1.000
    N2229    N        0.29267    0.53214    0.69454    1.000
    Si2230   Si       0.26114    0.53590    0.62076    1.000
    N2231    N        0.46410    0.50268    0.70245    1.000
    Si2232   Si       0.38884    0.49718    0.67057    1.000
    N2233    N        0.46354    0.49808    0.62339    1.000
    Si2234   Si       0.48746    0.53348    0.63287    1.000
    N2235    N        0.33451    0.49928    0.81659    1.000
    N2236    N        0.30876    0.52254    0.75502    1.000
    Si2237   Si       0.32447    0.48730    0.77634    1.000
    N2238    N        0.24486    0.51931    0.78909    1.000
    Si2239   Si       0.24762    0.48299    0.76479    1.000
    N2240    N        0.40016    0.51182    0.83971    1.000
    Si2241   Si       0.47037    0.51016    0.80597    1.000
    N2242    N        0.49174    0.50172    0.76835    1.000
    Si2243   Si       0.25987    0.49481    0.92870    1.000
    N2244    N        0.29338    0.51914    0.92250    1.000
    N2245    N        0.34726    0.48543    0.88864    1.000
    Si2246   Si       0.35285    0.51255    0.98749    1.000
    Si2247   Si       0.32051    0.48252    0.92308    1.000
    N2248    N        0.24263    0.50099    0.96879    1.000
    N2249    N        0.34374    0.48036    0.95978    1.000
    Si2250   Si       0.41473    0.51887    0.94646    1.000
    N2251    N        0.40651    0.52872    0.90468    1.000
    Si2252   Si       0.37480    0.51790    0.87671    1.000
    N2253    N        0.45151    0.53321    0.96260    1.000
    N2254    N        0.48416    0.50654    0.91125    1.000
    N2255    N        0.42537    0.47769    0.94099    1.000
    N2256    N        0.31594    0.55652    0.05832    1.000
    N2257    N        0.25842    0.56035    0.02347    1.000
    Si2258   Si       0.35809    0.56285    0.06688    1.000
    Si2259   Si       0.26774    0.59303    0.99537    1.000
    N2260    N        0.37077    0.55646    0.10770    1.000
    Si2261   Si       0.38786    0.57797    0.01268    1.000
    N2262    N        0.43116    0.57505    0.01072    1.000
    N2263    N        0.37818    0.54175    0.03516    1.000
    Si2264   Si       0.26657    0.55779    0.24124    1.000
    Si2265   Si       0.28423    0.55157    0.16533    1.000
    N2266    N        0.26735    0.57801    0.20107    1.000
    Si2267   Si       0.35430    0.58411    0.13732    1.000
    N2268    N        0.31064    0.57495    0.13861    1.000
    N2269    N        0.24505    0.58306    0.14300    1.000
    N2270    N        0.47305    0.58791    0.19566    1.000
    N2271    N        0.36513    0.56596    0.17595    1.000
    N2272    N        0.33890    0.56800    0.32342    1.000
    N2273    N        0.30839    0.56315    0.25467    1.000
    Si2274   Si       0.32255    0.54408    0.29022    1.000
    Si2275   Si       0.33851    0.54365    0.35946    1.000
    Si2276   Si       0.44229    0.54766    0.28852    1.000
    N2277    N        0.46291    0.55889    0.35957    1.000
    Si2278   Si       0.42073    0.54943    0.36127    1.000
    N2279    N        0.44022    0.58838    0.27804    1.000
    N2280    N        0.37757    0.57838    0.24960    1.000
    N2281    N        0.41345    0.53874    0.32048    1.000
    N2282    N        0.25876    0.57557    0.47647    1.000
    Si2283   Si       0.29533    0.54839    0.41087    1.000
    N2284    N        0.34839    0.54508    0.40436    1.000
    N2285    N        0.29477    0.59439    0.41461    1.000
    N2286    N        0.25074    0.54065    0.41016    1.000
    Si2287   Si       0.40450    0.54742    0.47663    1.000
    N2288    N        0.38152    0.57516    0.45171    1.000
    Si2289   Si       0.48493    0.54445    0.45870    1.000
    Si2290   Si       0.48050    0.57923    0.39545    1.000
    N2291    N        0.40065    0.58394    0.37756    1.000
    Si2292   Si       0.37022    0.58211    0.41064    1.000
    N2293    N        0.44625    0.55955    0.47339    1.000
    N2294    N        0.48524    0.54100    0.41521    1.000
    N2295    N        0.24455    0.55534    0.58446    1.000
    Si2296   Si       0.36363    0.56034    0.53627    1.000
    Si2297   Si       0.41029    0.57878    0.58754    1.000
    Si2298   Si       0.48093    0.56075    0.55816    1.000
    N2299    N        0.39752    0.54122    0.51924    1.000
    N2300    N        0.37607    0.58981    0.56586    1.000
    N2301    N        0.44780    0.59184    0.56905    1.000
    N2302    N        0.23908    0.57982    0.70495    1.000
    Si2303   Si       0.28201    0.56857    0.71377    1.000
    N2304    N        0.27369    0.57245    0.64237    1.000
    N2305    N        0.33999    0.56431    0.65185    1.000
    Si2306   Si       0.31194    0.59457    0.65312    1.000
    N2307    N        0.40551    0.53726    0.67277    1.000
    N2308    N        0.44618    0.56913    0.72524    1.000
    Si2309   Si       0.44396    0.54259    0.69267    1.000
    N2310    N        0.46811    0.55966    0.66235    1.000
    N2311    N        0.40032    0.59419    0.62830    1.000
    Si2312   Si       0.38160    0.57300    0.66193    1.000
    N2313    N        0.29618    0.55665    0.81981    1.000
    Si2314   Si       0.26397    0.57369    0.84628    1.000
    N2315    N        0.27487    0.57938    0.75510    1.000
    Si2316   Si       0.33679    0.54179    0.82570    1.000
    Si2317   Si       0.28103    0.54568    0.78038    1.000
    N2318    N        0.36734    0.56092    0.80459    1.000
    N2319    N        0.44571    0.54654    0.79787    1.000
    Si2320   Si       0.44798    0.57894    0.76880    1.000
    Si2321   Si       0.40661    0.54950    0.82026    1.000
    N2322    N        0.41311    0.57725    0.85514    1.000
    N2323    N        0.34648    0.54943    0.86599    1.000
    N2324    N        0.31850    0.54101    0.98719    1.000
    N2325    N        0.27401    0.58176    0.95325    1.000
    Si2326   Si       0.30547    0.55201    0.94890    1.000
    N2327    N        0.33629    0.57421    0.92965    1.000
    Si2328   Si       0.32605    0.58173    0.88846    1.000
    N2329    N        0.28229    0.58458    0.88483    1.000
    Si2330   Si       0.25121    0.59310    0.91748    1.000
    N2331    N        0.38411    0.53915    0.96783    1.000
    N2332    N        0.47396    0.56550    0.88939    1.000
    Si2333   Si       0.42881    0.56515    0.89491    1.000
    Si2334   Si       0.37554    0.57623    0.94710    1.000
    N2335    N        0.40579    0.59373    0.92126    1.000
    N2336    N        0.29670    0.61363    0.02105    1.000
    N2337    N        0.31829    0.61972    0.09413    1.000
    N2338    N        0.26249    0.59960    0.07950    1.000
    Si2339   Si       0.28038    0.60360    0.12118    1.000
    Si2340   Si       0.30097    0.59704    0.06138    1.000
    Si2341   Si       0.39155    0.63810    0.04875    1.000
    N2342    N        0.43363    0.62899    0.04662    1.000
    Si2343   Si       0.46006    0.64386    0.07759    1.000
    N2344    N        0.37208    0.60044    0.04713    1.000
    Si2345   Si       0.46486    0.59731    0.03318    1.000
    N2346    N        0.44139    0.64278    0.11567    1.000
    N2347    N        0.34382    0.62113    0.21225    1.000
    N2348    N        0.27582    0.63616    0.15165    1.000
    Si2349   Si       0.24827    0.61083    0.17520    1.000
    Si2350   Si       0.47798    0.64291    0.13982    1.000
    N2351    N        0.37791    0.62018    0.14731    1.000
    N2352    N        0.41203    0.62264    0.21415    1.000
    Si2353   Si       0.45687    0.62370    0.21125    1.000
    Si2354   Si       0.37736    0.60457    0.18983    1.000
    Si2355   Si       0.39777    0.65186    0.12448    1.000
    N2356    N        0.33161    0.62544    0.27988    1.000
    Si2357   Si       0.33891    0.61193    0.32142    1.000
    N2358    N        0.30745    0.62593    0.34874    1.000
    Si2359   Si       0.26988    0.63915    0.33112    1.000
    N2360    N        0.23987    0.60820    0.32492    1.000
    Si2361   Si       0.33735    0.59678    0.24781    1.000
    Si2362   Si       0.40849    0.60819    0.25556    1.000
    Si2363   Si       0.47530    0.61293    0.28708    1.000
    N2364    N        0.37528    0.63360    0.33109    1.000
    N2365    N        0.46870    0.64490    0.31636    1.000
    N2366    N        0.40048    0.65050    0.26726    1.000
    N2367    N        0.47418    0.63868    0.24671    1.000
    Si2368   Si       0.26444    0.60589    0.44386    1.000
    Si2369   Si       0.31255    0.62862    0.39371    1.000
    N2370    N        0.33446    0.63750    0.46328    1.000
    N2371    N        0.35435    0.62047    0.39720    1.000
    N2372    N        0.26624    0.64611    0.46132    1.000
    N2373    N        0.40862    0.62787    0.47306    1.000
    Si2374   Si       0.38917    0.62640    0.37167    1.000
    N2375    N        0.45550    0.60577    0.42085    1.000
    Si2376   Si       0.45662    0.64839    0.40803    1.000
    N2377    N        0.47290    0.62087    0.48717    1.000
    Si2378   Si       0.36702    0.61030    0.47290    1.000
    Si2379   Si       0.44368    0.60360    0.46286    1.000
    N2380    N        0.41473    0.65348    0.39358    1.000
    N2381    N        0.31893    0.63500    0.55774    1.000
    N2382    N        0.26191    0.63472    0.59490    1.000
    Si2383   Si       0.27605    0.64330    0.55395    1.000
    N2384    N        0.25040    0.60863    0.53853    1.000
    Si2385   Si       0.35587    0.62314    0.54144    1.000
    Si2386   Si       0.32574    0.65050    0.59930    1.000
    N2387    N        0.35107    0.59326    0.51025    1.000
    N2388    N        0.43750    0.64919    0.60392    1.000
    Si2389   Si       0.46643    0.62713    0.58264    1.000
    Si2390   Si       0.39857    0.63549    0.61906    1.000
    N2391    N        0.23693    0.63078    0.65748    1.000
    Si2392   Si       0.34236    0.61235    0.71847    1.000
    N2393    N        0.32868    0.63223    0.64066    1.000
    N2394    N        0.24188    0.65186    0.72603    1.000
    N2395    N        0.34824    0.65389    0.70710    1.000
    N2396    N        0.30685    0.59873    0.69774    1.000
    Si2397   Si       0.41557    0.60236    0.72504    1.000
    N2398    N        0.43364    0.64222    0.72227    1.000
    N2399    N        0.39348    0.65827    0.65703    1.000
    N2400    N        0.38051    0.59540    0.69983    1.000
    N2401    N        0.34022    0.61530    0.76276    1.000
    Si2402   Si       0.31226    0.64188    0.78369    1.000
    N2403    N        0.26999    0.64211    0.78034    1.000
    Si2404   Si       0.26041    0.64772    0.82599    1.000
    N2405    N        0.30763    0.64721    0.82711    1.000
    N2406    N        0.24226    0.60877    0.83065    1.000
    Si2407   Si       0.25204    0.61634    0.75103    1.000
    Si2408   Si       0.33703    0.65620    0.85749    1.000
    N2409    N        0.37936    0.62809    0.82093    1.000
    N2410    N        0.47152    0.61551    0.77258    1.000
    Si2411   Si       0.38947    0.61444    0.86242    1.000
    Si2412   Si       0.37070    0.60006    0.78872    1.000
    Si2413   Si       0.46715    0.65277    0.74870    1.000
    N2414    N        0.40882    0.59930    0.76742    1.000
    N2415    N        0.34829    0.61867    0.87815    1.000
    Si2416   Si       0.36528    0.64538    0.97919    1.000
    N2417    N        0.41279    0.64515    0.88093    1.000
    N2418    N        0.46262    0.62104    0.92912    1.000
    Si2419   Si       0.41960    0.63581    0.92579    1.000
    N2420    N        0.37324    0.60272    0.98089    1.000
    N2421    N        0.31255    0.67587    0.05231    1.000
    N2422    N        0.24822    0.69870    0.09721    1.000
    Si2423   Si       0.28989    0.70487    0.07972    1.000
    N2424    N        0.26212    0.67465    0.00708    1.000
    N2425    N        0.31158    0.68556    0.11279    1.000
    Si2426   Si       0.30065    0.65761    0.01316    1.000
    Si2427   Si       0.33352    0.65994    0.08723    1.000
    N2428    N        0.46909    0.68425    0.00155    1.000
    N2429    N        0.38069    0.66222    0.01585    1.000
    N2430    N        0.47434    0.68375    0.07274    1.000
    Si2431   Si       0.46089    0.70524    0.03904    1.000
    Si2432   Si       0.38989    0.70493    0.01515    1.000
    N2433    N        0.41970    0.71245    0.04734    1.000
    N2434    N        0.37705    0.65500    0.08635    1.000
    N2435    N        0.31699    0.68918    0.24000    1.000
    N2436    N        0.25479    0.69987    0.16494    1.000
    N2437    N        0.31585    0.68520    0.17804    1.000
    Si2438   Si       0.28806    0.67668    0.14678    1.000
    Si2439   Si       0.28436    0.70100    0.20594    1.000
    Si2440   Si       0.33657    0.66388    0.21139    1.000
    N2441    N        0.24911    0.68367    0.22951    1.000
    Si2442   Si       0.35738    0.70303    0.16675    1.000
    Si2443   Si       0.47118    0.69061    0.19459    1.000
    N2444    N        0.44185    0.69102    0.22694    1.000
    N2445    N        0.38756    0.69193    0.13850    1.000
    N2446    N        0.37443    0.68365    0.20379    1.000
    Si2447   Si       0.40705    0.66506    0.22544    1.000
    N2448    N        0.46620    0.65008    0.17941    1.000
    N2449    N        0.34916    0.68955    0.29971    1.000
    N2450    N        0.25197    0.67077    0.35484    1.000
    Si2451   Si       0.32008    0.66765    0.27811    1.000
    Si2452   Si       0.24406    0.66349    0.26628    1.000
    N2453    N        0.27988    0.66171    0.29314    1.000
    N2454    N        0.47568    0.70172    0.28294    1.000
    N2455    N        0.41565    0.69296    0.31779    1.000
    Si2456   Si       0.45953    0.68571    0.31933    1.000
    Si2457   Si       0.38425    0.66565    0.30466    1.000
    N2458    N        0.46919    0.70821    0.35839    1.000
    N2459    N        0.31958    0.70482    0.46832    1.000
    Si2460   Si       0.26117    0.68530    0.39588    1.000
    Si2461   Si       0.30544    0.66602    0.45464    1.000
    N2462    N        0.29755    0.66655    0.41125    1.000
    Si2463   Si       0.23803    0.67711    0.45583    1.000
    N2464    N        0.38862    0.69227    0.46208    1.000
    N2465    N        0.44902    0.68616    0.43215    1.000
    Si2466   Si       0.40390    0.66584    0.49251    1.000
    Si2467   Si       0.40446    0.68639    0.42055    1.000
    Si2468   Si       0.46808    0.70711    0.46674    1.000
    N2469    N        0.30676    0.68901    0.59619    1.000
    N2470    N        0.27193    0.68443    0.53970    1.000
    Si2471   Si       0.30459    0.71046    0.55852    1.000
    Si2472   Si       0.38306    0.68275    0.56373    1.000
    N2473    N        0.44110    0.68716    0.50329    1.000
    N2474    N        0.41803    0.70811    0.56573    1.000
    Si2475   Si       0.47490    0.65798    0.50749    1.000
    N2476    N        0.38318    0.65573    0.52856    1.000
    N2477    N        0.36971    0.65854    0.59492    1.000
    N2478    N        0.47776    0.65450    0.54986    1.000
    Si2479   Si       0.35598    0.68141    0.73863    1.000
    N2480    N        0.33406    0.70291    0.65761    1.000
    N2481    N        0.26214    0.69260    0.64733    1.000
    Si2482   Si       0.34985    0.66213    0.66389    1.000
    Si2483   Si       0.29952    0.71004    0.63538    1.000
    Si2484   Si       0.24501    0.65946    0.62596    1.000
    Si2485   Si       0.41939    0.70503    0.74484    1.000
    N2486    N        0.46404    0.66754    0.66567    1.000
    Si2487   Si       0.42671    0.66342    0.68558    1.000
    Si2488   Si       0.45622    0.68233    0.62613    1.000
    N2489    N        0.42509    0.70212    0.70335    1.000
    N2490    N        0.32378    0.67921    0.76598    1.000
    N2491    N        0.25828    0.67068    0.86352    1.000
    Si2492   Si       0.28521    0.70493    0.86298    1.000
    Si2493   Si       0.24125    0.67368    0.76525    1.000
    N2494    N        0.26542    0.71148    0.76443    1.000
    N2495    N        0.36763    0.68793    0.84249    1.000
    Si2496   Si       0.39020    0.66920    0.80955    1.000
    N2497    N        0.42817    0.68222    0.82811    1.000
    N2498    N        0.38795    0.68290    0.76811    1.000
    N2499    N        0.45454    0.69192    0.76699    1.000
    Si2500   Si       0.41482    0.68863    0.86815    1.000
    Si2501   Si       0.45424    0.70924    0.80726    1.000
    N2502    N        0.32191    0.68996    0.88247    1.000
    N2503    N        0.27543    0.69181    0.93253    1.000
    Si2504   Si       0.24955    0.67021    0.90539    1.000
    Si2505   Si       0.30991    0.70050    0.95904    1.000
    N2506    N        0.32527    0.66412    0.97752    1.000
    N2507    N        0.44449    0.67804    0.93335    1.000
    Si2508   Si       0.38447    0.69997    0.93962    1.000
    N2509    N        0.39010    0.71484    0.89656    1.000
    Si2510   Si       0.44865    0.70562    0.96744    1.000
    Si2511   Si       0.48175    0.65877    0.92378    1.000
    N2512    N        0.38439    0.65630    0.94355    1.000
    N2513    N        0.30264    0.74558    0.06847    1.000
    Si2514   Si       0.33920    0.76259    0.05181    1.000
    N2515    N        0.35886    0.73431    0.02049    1.000
    Si2516   Si       0.25299    0.71767    0.00660    1.000
    Si2517   Si       0.35499    0.76889    0.12389    1.000
    Si2518   Si       0.28273    0.77369    0.09446    1.000
    N2519    N        0.36538    0.75392    0.08495    1.000
    N2520    N        0.42981    0.75568    0.10576    1.000
    Si2521   Si       0.40571    0.74448    0.06959    1.000
    N2522    N        0.47897    0.74519    0.03807    1.000
    N2523    N        0.25618    0.76009    0.12501    1.000
    N2524    N        0.35310    0.76008    0.23723    1.000
    N2525    N        0.28757    0.74352    0.21520    1.000
    N2526    N        0.34993    0.74636    0.16240    1.000
    Si2527   Si       0.31984    0.73594    0.24410    1.000
    Si2528   Si       0.46150    0.74407    0.13251    1.000
    N2529    N        0.40583    0.77346    0.20516    1.000
    N2530    N        0.45488    0.72243    0.17038    1.000
    N2531    N        0.46957    0.75562    0.22787    1.000
    Si2532   Si       0.44421    0.76144    0.18952    1.000
    N2533    N        0.30349    0.74269    0.28342    1.000
    Si2534   Si       0.33303    0.72769    0.31366    1.000
    N2535    N        0.25139    0.75116    0.32807    1.000
    N2536    N        0.31646    0.72585    0.35409    1.000
    Si2537   Si       0.28084    0.74765    0.36120    1.000
    Si2538   Si       0.26687    0.76615    0.29166    1.000
    N2539    N        0.36755    0.75413    0.31902    1.000
    N2540    N        0.43724    0.75787    0.32312    1.000
    Si2541   Si       0.40536    0.73576    0.30875    1.000
    N2542    N        0.41313    0.73801    0.26577    1.000
    Si2543   Si       0.46282    0.75021    0.35511    1.000
    Si2544   Si       0.45157    0.72529    0.25343    1.000
    Si2545   Si       0.39539    0.77242    0.24751    1.000
    Si2546   Si       0.35618    0.72075    0.44913    1.000
    N2547    N        0.32144    0.74552    0.42142    1.000
    N2548    N        0.25726    0.72848    0.39233    1.000
    Si2549   Si       0.29178    0.73926    0.45645    1.000
    Si2550   Si       0.34322    0.73447    0.38573    1.000
    N2551    N        0.29567    0.76494    0.49185    1.000
    N2552    N        0.25567    0.71569    0.45473    1.000
    N2553    N        0.37149    0.76322    0.45838    1.000
    N2554    N        0.45197    0.74630    0.47234    1.000
    Si2555   Si       0.46721    0.76328    0.43201    1.000
    N2556    N        0.44611    0.76692    0.39340    1.000
    N2557    N        0.37177    0.71079    0.40561    1.000
    N2558    N        0.29032    0.75215    0.55905    1.000
    N2559    N        0.35236    0.71305    0.55451    1.000
    Si2560   Si       0.27384    0.77086    0.59411    1.000
    Si2561   Si       0.37651    0.74758    0.55244    1.000
    N2562    N        0.41051    0.75410    0.52331    1.000
    Si2563   Si       0.42820    0.73815    0.59600    1.000
    N2564    N        0.47851    0.72885    0.54574    1.000
    N2565    N        0.39214    0.76428    0.58926    1.000
    Si2566   Si       0.43925    0.72156    0.53037    1.000
    Si2567   Si       0.48598    0.76780    0.55947    1.000
    N2568    N        0.29195    0.75098    0.62676    1.000
    Si2569   Si       0.34774    0.73409    0.68208    1.000
    N2570    N        0.31258    0.75908    0.68686    1.000
    N2571    N        0.35859    0.72041    0.72241    1.000
    N2572    N        0.24438    0.74436    0.70562    1.000
    N2573    N        0.44875    0.76383    0.68144    1.000
    Si2574   Si       0.42054    0.73400    0.67424    1.000
    N2575    N        0.43211    0.71736    0.63273    1.000
    N2576    N        0.38368    0.75391    0.66841    1.000
    N2577    N        0.33386    0.74658    0.77775    1.000
    Si2578   Si       0.30379    0.75785    0.83749    1.000
    N2579    N        0.34187    0.75620    0.85903    1.000
    N2580    N        0.29545    0.71859    0.82238    1.000
    Si2581   Si       0.30499    0.71565    0.78010    1.000
    Si2582   Si       0.36602    0.75377    0.74972    1.000
    N2583    N        0.44516    0.75215    0.81178    1.000
    N2584    N        0.41089    0.74703    0.75544    1.000
    Si2585   Si       0.44528    0.76710    0.76969    1.000
    N2586    N        0.27899    0.74654    0.87368    1.000
    Si2587   Si       0.28504    0.76895    0.97452    1.000
    N2588    N        0.34747    0.72156    0.95042    1.000
    N2589    N        0.29065    0.72784    0.98737    1.000
    Si2590   Si       0.35342    0.75471    0.98184    1.000
    Si2591   Si       0.24373    0.72324    0.94008    1.000
    N2592    N        0.26416    0.76173    0.93749    1.000
    Si2593   Si       0.35558    0.71786    0.87114    1.000
    N2594    N        0.47778    0.73493    0.95545    1.000
    Si2595   Si       0.42088    0.74731    0.89563    1.000
    N2596    N        0.40731    0.71113    0.97480    1.000
    N2597    N        0.44765    0.72074    0.87467    1.000
    N2598    N        0.34813    0.80061    0.03243    1.000
    N2599    N        0.25841    0.79881    0.06804    1.000
    N2600    N        0.31599    0.79074    0.11726    1.000
    N2601    N        0.25307    0.78175    0.99985    1.000
    N2602    N        0.47827    0.81819    0.05178    1.000
    Si2603   Si       0.39041    0.79915    0.01964    1.000
    Si2604   Si       0.46014    0.78298    0.03156    1.000
    N2605    N        0.41869    0.77753    0.04306    1.000
    N2606    N        0.34651    0.81230    0.19000    1.000
    N2607    N        0.26808    0.81372    0.22627    1.000
    Si2608   Si       0.24144    0.79212    0.14989    1.000
    N2609    N        0.27186    0.82249    0.15892    1.000
    Si2610   Si       0.25445    0.77001    0.22269    1.000
    Si2611   Si       0.36273    0.77151    0.19468    1.000
    N2612    N        0.38474    0.79896    0.13768    1.000
    Si2613   Si       0.42453    0.79487    0.12262    1.000
    N2614    N        0.45480    0.78533    0.15314    1.000
    N2615    N        0.27918    0.80714    0.29680    1.000
    Si2616   Si       0.29590    0.81872    0.33559    1.000
    N2617    N        0.34160    0.82020    0.33147    1.000
    N2618    N        0.29110    0.78889    0.36798    1.000
    Si2619   Si       0.28601    0.83044    0.26135    1.000
    Si2620   Si       0.36904    0.79017    0.34309    1.000
    N2621    N        0.40783    0.80948    0.34526    1.000
    N2622    N        0.41217    0.80594    0.27066    1.000
    Si2623   Si       0.43118    0.80001    0.30999    1.000
    N2624    N        0.47255    0.81420    0.30481    1.000
    Si2625   Si       0.28321    0.79690    0.41089    1.000
    N2626    N        0.32296    0.81121    0.42334    1.000
    Si2627   Si       0.26555    0.79404    0.47904    1.000
    N2628    N        0.26020    0.77404    0.44130    1.000
    Si2629   Si       0.35855    0.78525    0.42172    1.000
    N2630    N        0.25502    0.82928    0.41017    1.000
    N2631    N        0.36309    0.77122    0.38060    1.000
    Si2632   Si       0.38576    0.77615    0.49751    1.000
    Si2633   Si       0.45431    0.78567    0.49039    1.000
    N2634    N        0.41310    0.81002    0.48936    1.000
    Si2635   Si       0.42088    0.80174    0.38733    1.000
    N2636    N        0.39471    0.81165    0.42027    1.000
    N2637    N        0.47631    0.79912    0.45280    1.000
    N2638    N        0.30082    0.81923    0.54053    1.000
    N2639    N        0.28636    0.80950    0.61308    1.000
    Si2640   Si       0.30971    0.77884    0.52967    1.000
    N2641    N        0.35312    0.77428    0.52682    1.000
    N2642    N        0.47829    0.79365    0.52604    1.000
    Si2643   Si       0.42089    0.79892    0.59494    1.000
    N2644    N        0.41530    0.82742    0.56272    1.000
    N2645    N        0.45480    0.77337    0.59172    1.000
    Si2646   Si       0.27717    0.77075    0.70741    1.000
    N2647    N        0.34207    0.81081    0.65462    1.000
    N2648    N        0.26826    0.80238    0.67472    1.000
    Si2649   Si       0.30466    0.78632    0.65239    1.000
    N2650    N        0.28327    0.78900    0.74686    1.000
    N2651    N        0.39905    0.81448    0.69519    1.000
    Si2652   Si       0.44148    0.80245    0.70213    1.000
    N2653    N        0.41312    0.81633    0.63404    1.000
    Si2654   Si       0.38272    0.79676    0.65728    1.000
    Si2655   Si       0.36896    0.82841    0.72510    1.000
    Si2656   Si       0.31742    0.78793    0.77264    1.000
    N2657    N        0.30767    0.79455    0.81562    1.000
    Si2658   Si       0.24550    0.80886    0.75820    1.000
    N2659    N        0.35934    0.82908    0.85215    1.000
    N2660    N        0.35202    0.79562    0.74658    1.000
    Si2661   Si       0.43703    0.78351    0.83925    1.000
    N2662    N        0.42373    0.81798    0.81662    1.000
    N2663    N        0.46903    0.79892    0.86663    1.000
    N2664    N        0.44791    0.80486    0.74736    1.000
    N2665    N        0.40412    0.77555    0.86714    1.000
    Si2666   Si       0.27044    0.77835    0.89944    1.000
    N2667    N        0.32302    0.78648    0.97237    1.000
    N2668    N        0.29987    0.81124    0.90649    1.000
    Si2669   Si       0.32900    0.81184    0.93813    1.000
    N2670    N        0.24030    0.80181    0.87994    1.000
    N2671    N        0.43322    0.77382    0.92786    1.000
    Si2672   Si       0.46959    0.77740    0.95252    1.000
    N2673    N        0.45640    0.79668    0.98943    1.000
    N2674    N        0.38699    0.78116    0.98058    1.000
    Si2675   Si       0.39944    0.79870    0.94205    1.000
    Si2676   Si       0.36355    0.78983    0.87431    1.000
    N2677    N        0.36444    0.79996    0.91701    1.000
    N2678    N        0.29743    0.85364    0.09023    1.000
    N2679    N        0.34811    0.86940    0.02348    1.000
    N2680    N        0.28893    0.84189    0.01986    1.000
    Si2681   Si       0.33544    0.87987    0.09928    1.000
    Si2682   Si       0.26399    0.87558    0.01442    1.000
    Si2683   Si       0.27082    0.83877    0.06002    1.000
    Si2684   Si       0.32908    0.83335    0.00432    1.000
    N2685    N        0.23741    0.86289    0.04646    1.000
    Si2686   Si       0.46218    0.85154    0.07559    1.000
    N2687    N        0.37517    0.86563    0.08436    1.000
    Si2688   Si       0.38828    0.86922    0.04073    1.000
    Si2689   Si       0.40696    0.86669    0.11530    1.000
    N2690    N        0.41051    0.83833    0.02053    1.000
    N2691    N        0.43126    0.83145    0.10090    1.000
    N2692    N        0.46399    0.88777    0.05121    1.000
    Si2693   Si       0.34062    0.84314    0.22144    1.000
    Si2694   Si       0.26916    0.84397    0.19637    1.000
    N2695    N        0.33398    0.85949    0.13939    1.000
    N2696    N        0.30638    0.86384    0.20295    1.000
    Si2697   Si       0.24094    0.88935    0.24051    1.000
    Si2698   Si       0.30234    0.83024    0.12925    1.000
    Si2699   Si       0.32012    0.88784    0.17038    1.000
    N2700    N        0.38153    0.85750    0.22505    1.000
    Si2701   Si       0.36642    0.83372    0.15908    1.000
    N2702    N        0.39646    0.86544    0.15735    1.000
    Si2703   Si       0.39255    0.88735    0.19560    1.000
    N2704    N        0.27472    0.85688    0.33879    1.000
    N2705    N        0.26670    0.87065    0.26830    1.000
    Si2706   Si       0.34611    0.85249    0.30058    1.000
    N2707    N        0.32911    0.83738    0.26306    1.000
    N2708    N        0.32517    0.88763    0.31134    1.000
    Si2709   Si       0.28151    0.88889    0.30518    1.000
    N2710    N        0.44259    0.88071    0.34157    1.000
    Si2711   Si       0.47631    0.84087    0.27056    1.000
    Si2712   Si       0.40531    0.84781    0.25909    1.000
    N2713    N        0.38671    0.86846    0.29423    1.000
    N2714    N        0.44559    0.86503    0.25513    1.000
    Si2715   Si       0.48594    0.88098    0.33021    1.000
    N2716    N        0.35777    0.84375    0.47098    1.000
    Si2717   Si       0.26133    0.86942    0.42498    1.000
    Si2718   Si       0.31930    0.84304    0.45075    1.000
    N2719    N        0.30480    0.87903    0.43207    1.000
    N2720    N        0.28826    0.83223    0.47715    1.000
    Si2721   Si       0.35541    0.87926    0.49744    1.000
    N2722    N        0.41356    0.87638    0.46081    1.000
    Si2723   Si       0.39730    0.83427    0.45689    1.000
    N2724    N        0.45223    0.83375    0.39040    1.000
    Si2725   Si       0.43948    0.87309    0.38311    1.000
    N2726    N        0.47674    0.88598    0.40695    1.000
    N2727    N        0.27524    0.86663    0.59103    1.000
    N2728    N        0.25086    0.87721    0.52919    1.000
    Si2729   Si       0.28512    0.85188    0.51611    1.000
    N2730    N        0.31566    0.88556    0.51513    1.000
    N2731    N        0.34586    0.84309    0.58396    1.000
    Si2732   Si       0.30479    0.83542    0.58044    1.000
    N2733    N        0.38302    0.86618    0.52800    1.000
    Si2734   Si       0.38387    0.85630    0.57026    1.000
    N2735    N        0.45378    0.85824    0.51060    1.000
    Si2736   Si       0.41642    0.83989    0.52217    1.000
    Si2737   Si       0.48812    0.83643    0.52308    1.000
    Si2738   Si       0.34054    0.85208    0.66438    1.000
    N2739    N        0.30146    0.86804    0.65339    1.000
    Si2740   Si       0.26984    0.84668    0.63068    1.000
    N2741    N        0.34413    0.85849    0.70610    1.000
    N2742    N        0.29304    0.89291    0.74125    1.000
    N2743    N        0.43182    0.89275    0.67221    1.000
    N2744    N        0.37662    0.87185    0.65131    1.000
    N2745    N        0.45727    0.83724    0.68133    1.000
    Si2746   Si       0.41532    0.85200    0.66173    1.000
    Si2747   Si       0.47078    0.87743    0.68374    1.000
    N2748    N        0.28485    0.85454    0.85021    1.000
    N2749    N        0.32794    0.85658    0.79313    1.000
    Si2750   Si       0.28997    0.87091    0.77941    1.000
    N2751    N        0.25730    0.83965    0.78379    1.000
    Si2752   Si       0.32031    0.83584    0.83255    1.000
    Si2753   Si       0.26117    0.88750    0.83720    1.000
    Si2754   Si       0.36751    0.87328    0.78310    1.000
    Si2755   Si       0.39831    0.84564    0.84127    1.000
    N2756    N        0.45988    0.86577    0.78261    1.000
    N2757    N        0.39180    0.84588    0.75923    1.000
    N2758    N        0.39707    0.88003    0.81432    1.000
    Si2759   Si       0.42868    0.83436    0.77505    1.000
    N2760    N        0.48643    0.87061    0.86099    1.000
    N2761    N        0.24404    0.85389    0.91707    1.000
    N2762    N        0.32923    0.84891    0.96192    1.000
    Si2763   Si       0.26879    0.83696    0.88653    1.000
    N2764    N        0.24507    0.88561    0.97761    1.000
    Si2765   Si       0.33290    0.88873    0.94528    1.000
    Si2766   Si       0.43782    0.83635    0.98506    1.000
    N2767    N        0.46481    0.86946    0.98347    1.000
    Si2768   Si       0.46283    0.83975    0.88150    1.000
    Si2769   Si       0.47440    0.88257    0.94476    1.000
    N2770    N        0.48350    0.84645    0.92244    1.000
    N2771    N        0.42112    0.85253    0.88059    1.000
    Si2772   Si       0.40759    0.87086    0.91759    1.000
    N2773    N        0.41304    0.83957    0.94903    1.000
    N2774    N        0.33097    0.92376    0.10272    1.000
    N2775    N        0.28981    0.91080    0.02383    1.000
    Si2776   Si       0.33120    0.90837    0.01762    1.000
    N2777    N        0.35731    0.93677    0.03994    1.000
    N2778    N        0.40872    0.90150    0.01802    1.000
    Si2779   Si       0.45250    0.89992    0.01143    1.000
    N2780    N        0.43183    0.90039    0.10632    1.000
    Si2781   Si       0.47789    0.90847    0.08805    1.000
    Si2782   Si       0.39523    0.94262    0.02059    1.000
    N2783    N        0.46886    0.93764    0.99948    1.000
    N2784    N        0.25336    0.92993    0.23389    1.000
    N2785    N        0.29274    0.92147    0.16454    1.000
    N2786    N        0.35566    0.90851    0.18552    1.000
    Si2787   Si       0.26678    0.94304    0.19411    1.000
    Si2788   Si       0.30994    0.94675    0.13543    1.000
    Si2789   Si       0.44487    0.93011    0.13817    1.000
    N2790    N        0.47913    0.91224    0.16185    1.000
    N2791    N        0.41726    0.91582    0.21476    1.000
    N2792    N        0.47524    0.93765    0.23001    1.000
    Si2793   Si       0.34304    0.92525    0.32217    1.000
    N2794    N        0.28054    0.93297    0.29976    1.000
    N2795    N        0.31926    0.94664    0.35460    1.000
    N2796    N        0.38237    0.91864    0.33780    1.000
    N2797    N        0.43349    0.92303    0.28731    1.000
    Si2798   Si       0.41113    0.89748    0.31428    1.000
    Si2799   Si       0.44702    0.90918    0.24699    1.000
    Si2800   Si       0.25582    0.93535    0.39773    1.000
    Si2801   Si       0.32448    0.91681    0.43758    1.000
    N2802    N        0.35412    0.93400    0.40954    1.000
    N2803    N        0.26646    0.92594    0.48809    1.000
    N2804    N        0.35588    0.90943    0.46742    1.000
    N2805    N        0.24949    0.89347    0.39266    1.000
    N2806    N        0.29291    0.94586    0.42313    1.000
    N2807    N        0.47044    0.91763    0.47193    1.000
    Si2808   Si       0.44019    0.89397    0.48941    1.000
    Si2809   Si       0.38829    0.93088    0.37834    1.000
    N2810    N        0.40639    0.89666    0.39996    1.000
    Si2811   Si       0.48250    0.92281    0.43037    1.000
    Si2812   Si       0.39179    0.91196    0.44007    1.000
    N2813    N        0.28415    0.93261    0.55741    1.000
    Si2814   Si       0.30031    0.92558    0.51771    1.000
    N2815    N        0.35530    0.93869    0.55477    1.000
    Si2816   Si       0.32081    0.94179    0.58355    1.000
    Si2817   Si       0.25721    0.89741    0.56741    1.000
    N2818    N        0.33490    0.91853    0.61695    1.000
    Si2819   Si       0.39630    0.92112    0.55223    1.000
    N2820    N        0.41583    0.92357    0.51351    1.000
    N2821    N        0.39350    0.89388    0.58627    1.000
    Si2822   Si       0.46582    0.94575    0.57861    1.000
    N2823    N        0.45807    0.94167    0.62115    1.000
    Si2824   Si       0.30794    0.91243    0.65125    1.000
    N2825    N        0.33182    0.92126    0.68689    1.000
    N2826    N        0.27643    0.94063    0.64139    1.000
    Si2827   Si       0.33158    0.89709    0.72299    1.000
    N2828    N        0.39277    0.93842    0.64236    1.000
    Si2829   Si       0.37528    0.90476    0.62369    1.000
    Si2830   Si       0.36664    0.94469    0.67788    1.000
    Si2831   Si       0.42985    0.93733    0.67577    1.000
    N2832    N        0.39842    0.93684    0.70750    1.000
    N2833    N        0.47412    0.93956    0.68614    1.000
    N2834    N        0.26958    0.90513    0.79663    1.000
    N2835    N        0.27201    0.92238    0.85889    1.000
    Si2836   Si       0.26360    0.92373    0.75296    1.000
    N2837    N        0.35716    0.90745    0.75792    1.000
    Si2838   Si       0.27780    0.94355    0.81982    1.000
    N2839    N        0.42468    0.92390    0.76993    1.000
    N2840    N        0.44851    0.92366    0.83175    1.000
    Si2841   Si       0.43424    0.89777    0.80177    1.000
    Si2842   Si       0.48323    0.91458    0.85411    1.000
    Si2843   Si       0.38974    0.93527    0.74928    1.000
    N2844    N        0.33799    0.93335    0.87175    1.000
    Si2845   Si       0.29991    0.92878    0.89086    1.000
    N2846    N        0.33735    0.92026    0.97633    1.000
    N2847    N        0.29893    0.89933    0.92124    1.000
    Si2848   Si       0.25607    0.89206    0.93624    1.000
    N2849    N        0.23645    0.93058    0.92225    1.000
    N2850    N        0.40686    0.93871    0.88230    1.000
    Si2851   Si       0.44297    0.94073    0.90701    1.000
    N2852    N        0.48312    0.93833    0.88923    1.000
    N2853    N        0.43884    0.90037    0.92616    1.000
    Si2854   Si       0.36900    0.93184    0.90140    1.000
    N2855    N        0.36994    0.89343    0.92154    1.000
    N2856    N        0.30593    0.97429    0.05893    1.000
    Si2857   Si       0.27202    0.98733    0.08375    1.000
    N2858    N        0.27630    0.97708    0.00163    1.000
    N2859    N        0.24674    0.95749    0.06889    1.000
    Si2860   Si       0.34167    0.95582    0.07549    1.000
    Si2861   Si       0.27558    0.95057    0.03487    1.000
    N2862    N        0.37766    0.97627    0.09324    1.000
    Si2863   Si       0.46166    0.97046    0.02494    1.000
    N2864    N        0.42329    0.96616    0.04473    1.000
    Si2865   Si       0.40683    0.99889    0.06762    1.000
    Si2866   Si       0.47955    0.98778    0.09212    1.000
    N2867    N        0.46887    0.94882    0.10645    1.000
    N2868    N        0.28710    0.97996    0.12221    1.000
    N2869    N        0.34229    0.96820    0.15914    1.000
    N2870    N        0.26665    0.98568    0.19145    1.000
    Si2871   Si       0.26152    0.00223    0.15167    1.000
    Si2872   Si       0.34748    0.94902    0.19777    1.000
    N2873    N        0.31475    0.95094    0.22461    1.000
    Si2874   Si       0.38092    0.97644    0.13712    1.000
    N2875    N        0.44089    0.99199    0.20272    1.000
    N2876    N        0.41127    0.95157    0.15624    1.000
    Si2877   Si       0.41534    0.95713    0.19902    1.000
    N2878    N        0.37860    0.97559    0.21519    1.000
    Si2879   Si       0.47569    0.98305    0.22873    1.000
    N2880    N        0.27978    0.98882    0.26630    1.000
    Si2881   Si       0.28325    0.95826    0.33445    1.000
    N2882    N        0.28944    0.00101    0.32889    1.000
    N2883    N        0.34309    0.95471    0.28992    1.000
    Si2884   Si       0.30619    0.95281    0.26561    1.000
    N2885    N        0.24963    0.95248    0.36144    1.000
    Si2886   Si       0.23981    0.95851    0.26479    1.000
    Si2887   Si       0.36380    0.99235    0.30027    1.000
    N2888    N        0.40519    0.98342    0.30780    1.000
    N2889    N        0.46163    0.97985    0.33668    1.000
    Si2890   Si       0.44153    0.96407    0.29663    1.000
    N2891    N        0.47010    0.98576    0.27339    1.000
    Si2892   Si       0.42011    0.99350    0.34762    1.000
    Si2893   Si       0.48444    0.95512    0.36379    1.000
    N2894    N        0.25793    0.99083    0.47707    1.000
    Si2895   Si       0.32412    0.96154    0.39580    1.000
    Si2896   Si       0.26316    0.95348    0.45653    1.000
    N2897    N        0.33227    0.00339    0.39731    1.000
    N2898    N        0.40687    0.97008    0.37980    1.000
    Si2899   Si       0.43201    0.97446    0.41386    1.000
    N2900    N        0.46703    0.95213    0.40375    1.000
    Si2901   Si       0.41354    0.95984    0.48798    1.000
    N2902    N        0.41307    0.94902    0.44514    1.000
    Si2903   Si       0.26427    0.97243    0.56694    1.000
    N2904    N        0.30267    0.98175    0.59193    1.000
    N2905    N        0.31665    0.96388    0.50878    1.000
    Si2906   Si       0.35319    0.97472    0.53030    1.000
    Si2907   Si       0.29506    0.99812    0.49983    1.000
    N2908    N        0.27015    0.00740    0.53705    1.000
    N2909    N        0.35905    0.00389    0.56184    1.000
    N2910    N        0.23895    0.97457    0.60659    1.000
    N2911    N        0.42779    0.00316    0.61372    1.000
    Si2912   Si       0.41767    0.96080    0.61376    1.000
    N2913    N        0.45136    0.97898    0.50006    1.000
    N2914    N        0.42227    0.95236    0.57138    1.000
    N2915    N        0.48622    0.98508    0.57915    1.000
    N2916    N        0.38167    0.98620    0.49989    1.000
    Si2917   Si       0.47842    0.94628    0.50458    1.000
    N2918    N        0.29196    0.99769    0.67347    1.000
    Si2919   Si       0.26763    0.98829    0.71223    1.000
    N2920    N        0.35929    0.98510    0.68792    1.000
    Si2921   Si       0.27770    0.98556    0.62988    1.000
    N2922    N        0.42551    0.98362    0.67669    1.000
    Si2923   Si       0.39806    0.98559    0.71220    1.000
    Si2924   Si       0.34516    0.96399    0.84172    1.000
    N2925    N        0.31223    0.96765    0.81364    1.000
    N2926    N        0.24471    0.97168    0.81645    1.000
    N2927    N        0.33333    0.00010    0.86145    1.000
    Si2928   Si       0.25568    0.99792    0.78318    1.000
    N2929    N        0.26548    0.96649    0.75216    1.000
    N2930    N        0.38251    0.97728    0.75288    1.000
    N2931    N        0.44379    0.98982    0.85534    1.000
    N2932    N        0.38641    0.96328    0.82312    1.000
    Si2933   Si       0.39112    0.99510    0.79219    1.000
    Si2934   Si       0.42197    0.95434    0.84436    1.000
    N2935    N        0.35259    0.96687    0.92417    1.000
    Si2936   Si       0.35303    0.95931    0.96954    1.000
    Si2937   Si       0.32497    0.99437    0.90394    1.000
    N2938    N        0.29069    0.96745    0.90797    1.000
    Si2939   Si       0.25023    0.97324    0.91733    1.000
    N2940    N        0.34105    0.99801    0.99058    1.000
    N2941    N        0.44111    0.97958    0.92722    1.000
    Si2942   Si       0.42593    0.98952    0.96686    1.000
    N2943    N        0.39419    0.96154    0.98211    1.000
    N2944    N        0.45656    0.00132    0.99549    1.000
    Si2945   Si       0.60532    0.04843    0.11289    1.000
    N2946    N        0.50956    0.01189    0.11140    1.000
    N2947    N        0.56278    0.06646    0.11909    1.000
    N2948    N        0.49200    0.05973    0.03265    1.000
    Si2949   Si       0.64519    0.03796    0.04726    1.000
    Si2950   Si       0.71457    0.04630    0.05575    1.000
    N2951    N        0.68463    0.01952    0.04390    1.000
    N2952    N        0.71725    0.04640    0.09925    1.000
    N2953    N        0.63138    0.06342    0.08256    1.000
    Si2954   Si       0.52153    0.05159    0.12370    1.000
    Si2955   Si       0.53928    0.02647    0.19411    1.000
    N2956    N        0.51546    0.05259    0.16845    1.000
    N2957    N        0.55760    0.04283    0.22938    1.000
    N2958    N        0.48966    0.06088    0.23421    1.000
    N2959    N        0.62759    0.01090    0.23900    1.000
    N2960    N        0.66534    0.04105    0.18442    1.000
    N2961    N        0.72631    0.05010    0.21194    1.000
    Si2962   Si       0.70597    0.02210    0.18611    1.000
    N2963    N        0.58845    0.02747    0.29368    1.000
    Si2964   Si       0.55642    0.04853    0.31120    1.000
    N2965    N        0.52818    0.01501    0.31859    1.000
    Si2966   Si       0.58653    0.01866    0.24931    1.000
    N2967    N        0.58588    0.00626    0.35797    1.000
    Si2968   Si       0.61419    0.01237    0.32408    1.000
    N2969    N        0.64335    0.04172    0.33345    1.000
    N2970    N        0.68660    0.03129    0.26424    1.000
    Si2971   Si       0.68503    0.04468    0.34623    1.000
    Si2972   Si       0.72852    0.03404    0.25288    1.000
    N2973    N        0.70522    0.06476    0.31253    1.000
    N2974    N        0.53234    0.05273    0.47915    1.000
    Si2975   Si       0.57551    0.05232    0.48974    1.000
    Si2976   Si       0.52451    0.00958    0.48079    1.000
    N2977    N        0.67918    0.01317    0.41923    1.000
    Si2978   Si       0.70061    0.06627    0.48329    1.000
    Si2979   Si       0.71408    0.03925    0.41176    1.000
    Si2980   Si       0.64814    0.02570    0.44600    1.000
    N2981    N        0.61647    0.03399    0.41621    1.000
    N2982    N        0.65929    0.05736    0.47302    1.000
    N2983    N        0.72816    0.05561    0.45182    1.000
    N2984    N        0.49774    0.02030    0.52230    1.000
    N2985    N        0.60472    0.05692    0.52258    1.000
    Si2986   Si       0.58000    0.03931    0.61153    1.000
    N2987    N        0.53721    0.02656    0.61541    1.000
    Si2988   Si       0.51205    0.06375    0.51794    1.000
    Si2989   Si       0.61436    0.03907    0.56090    1.000
    N2990    N        0.65604    0.03238    0.56569    1.000
    N2991    N        0.70727    0.04838    0.52201    1.000
    Si2992   Si       0.72652    0.03420    0.60268    1.000
    Si2993   Si       0.68189    0.06392    0.55451    1.000
    Si2994   Si       0.73248    0.01551    0.53002    1.000
    Si2995   Si       0.49671    0.02325    0.69609    1.000
    N2996    N        0.51618    0.06096    0.70563    1.000
    Si2997   Si       0.54855    0.04907    0.73072    1.000
    Si2998   Si       0.50458    0.05099    0.62982    1.000
    N2999    N        0.60209    0.04759    0.64765    1.000
    N3000    N        0.58479    0.03002    0.71956    1.000
    Si3001   Si       0.60264    0.01852    0.68037    1.000
    Si3002   Si       0.67902    0.04007    0.70392    1.000
    Si3003   Si       0.62132    0.02074    0.73968    1.000
    N3004    N        0.64114    0.01899    0.70116    1.000
    N3005    N        0.69975    0.02494    0.67024    1.000
    N3006    N        0.58591    0.02504    0.80188    1.000
    N3007    N        0.53941    0.03893    0.84130    1.000
    N3008    N        0.53317    0.02667    0.76445    1.000
    Si3009   Si       0.58279    0.04352    0.84395    1.000
    Si3010   Si       0.50423    0.05340    0.86281    1.000
    Si3011   Si       0.54038    0.01220    0.80527    1.000
    Si3012   Si       0.59312    0.06309    0.78133    1.000
    Si3013   Si       0.71742    0.02026    0.82018    1.000
    N3014    N        0.68154    0.04407    0.81293    1.000
    Si3015   Si       0.67466    0.05792    0.77219    1.000
    N3016    N        0.63136    0.05897    0.76037    1.000
    N3017    N        0.68749    0.02613    0.74578    1.000
    N3018    N        0.58063    0.01221    0.99266    1.000
    N3019    N        0.49368    0.02466    0.89452    1.000
    Si3020   Si       0.51508    0.01404    0.93240    1.000
    N3021    N        0.51568    0.03790    0.97196    1.000
    N3022    N        0.55462    0.02927    0.91817    1.000
    Si3023   Si       0.55772    0.04645    0.97768    1.000
    N3024    N        0.59892    0.05628    0.95397    1.000
    Si3025   Si       0.60703    0.01336    0.95749    1.000
    Si3026   Si       0.57802    0.06608    0.91507    1.000
    Si3027   Si       0.69147    0.02932    0.96016    1.000
    N3028    N        0.66752    0.06342    0.87939    1.000
    N3029    N        0.64949    0.01997    0.96510    1.000
    Si3030   Si       0.68346    0.02398    0.88649    1.000
    N3031    N        0.72591    0.05642    0.98330    1.000
    N3032    N        0.71123    0.02236    0.92143    1.000
    Si3033   Si       0.51987    0.09258    0.02422    1.000
    N3034    N        0.53557    0.11293    0.06247    1.000
    Si3035   Si       0.50416    0.11705    0.09149    1.000
    N3036    N        0.60178    0.11768    0.10020    1.000
    N3037    N        0.49149    0.07596    0.10057    1.000
    N3038    N        0.55373    0.08557    0.99781    1.000
    N3039    N        0.49068    0.11791    0.00278    1.000
    Si3040   Si       0.64105    0.10619    0.08781    1.000
    N3041    N        0.69870    0.08579    0.05192    1.000
    Si3042   Si       0.66840    0.10205    0.02642    1.000
    Si3043   Si       0.71427    0.08992    0.09418    1.000
    N3044    N        0.67910    0.10874    0.11252    1.000
    N3045    N        0.64570    0.06640    0.01364    1.000
    Si3046   Si       0.58463    0.10079    0.13575    1.000
    N3047    N        0.52210    0.11594    0.23320    1.000
    Si3048   Si       0.53076    0.07275    0.24481    1.000
    N3049    N        0.61680    0.07264    0.14878    1.000
    N3050    N        0.62999    0.10868    0.20571    1.000
    Si3051   Si       0.64860    0.08032    0.18011    1.000
    N3052    N        0.68712    0.10390    0.17829    1.000
    Si3053   Si       0.71601    0.09280    0.20864    1.000
    N3054    N        0.52018    0.09937    0.35316    1.000
    Si3055   Si       0.51586    0.10823    0.31036    1.000
    N3056    N        0.58042    0.07614    0.33737    1.000
    N3057    N        0.53774    0.07747    0.28643    1.000
    Si3058   Si       0.56071    0.09607    0.36914    1.000
    Si3059   Si       0.62309    0.07663    0.32080    1.000
    N3060    N        0.63763    0.08677    0.27882    1.000
    N3061    N        0.64878    0.10412    0.34129    1.000
    Si3062   Si       0.62695    0.11579    0.24726    1.000
    Si3063   Si       0.67938    0.07143    0.27600    1.000
    N3064    N        0.69627    0.09857    0.24730    1.000
    Si3065   Si       0.60281    0.07446    0.42253    1.000
    N3066    N        0.49619    0.07194    0.42306    1.000
    Si3067   Si       0.53354    0.07753    0.44242    1.000
    N3068    N        0.56142    0.07775    0.40889    1.000
    N3069    N        0.54426    0.11418    0.46443    1.000
    N3070    N        0.59912    0.08030    0.46534    1.000
    Si3071   Si       0.58624    0.12043    0.47297    1.000
    Si3072   Si       0.49041    0.09178    0.38287    1.000
    N3073    N        0.63156    0.10222    0.40652    1.000
    Si3074   Si       0.66827    0.10124    0.38070    1.000
    N3075    N        0.71145    0.10798    0.48564    1.000
    N3076    N        0.69252    0.06685    0.38559    1.000
    Si3077   Si       0.58673    0.09431    0.54544    1.000
    N3078    N        0.54452    0.08834    0.53098    1.000
    N3079    N        0.50144    0.11630    0.57819    1.000
    N3080    N        0.60830    0.12115    0.51175    1.000
    N3081    N        0.59419    0.07099    0.58292    1.000
    Si3082   Si       0.53231    0.12717    0.54963    1.000
    Si3083   Si       0.63200    0.08280    0.49885    1.000
    N3084    N        0.66406    0.09771    0.53112    1.000
    N3085    N        0.70242    0.07073    0.59082    1.000
    Si3086   Si       0.69101    0.10393    0.61764    1.000
    N3087    N        0.58363    0.11671    0.64049    1.000
    N3088    N        0.51169    0.09303    0.64428    1.000
    Si3089   Si       0.50918    0.09916    0.68753    1.000
    N3090    N        0.60972    0.10023    0.69518    1.000
    N3091    N        0.54143    0.12361    0.70286    1.000
    Si3092   Si       0.61545    0.08778    0.65300    1.000
    N3093    N        0.67066    0.08159    0.70785    1.000
    N3094    N        0.71879    0.10055    0.65594    1.000
    N3095    N        0.65552    0.10163    0.64212    1.000
    Si3096   Si       0.63445    0.09359    0.73023    1.000
    Si3097   Si       0.68089    0.11091    0.67713    1.000
    N3098    N        0.59219    0.08456    0.81873    1.000
    N3099    N        0.56456    0.08240    0.75436    1.000
    Si3100   Si       0.60946    0.10373    0.85215    1.000
    Si3101   Si       0.54723    0.12133    0.74619    1.000
    Si3102   Si       0.67737    0.07830    0.83956    1.000
    N3103    N        0.70195    0.09428    0.77188    1.000
    N3104    N        0.71909    0.09071    0.83718    1.000
    N3105    N        0.64985    0.11245    0.84017    1.000
    N3106    N        0.59423    0.07057    0.87774    1.000
    N3107    N        0.50926    0.09563    0.87547    1.000
    N3108    N        0.55935    0.10238    0.92832    1.000
    Si3109   Si       0.57516    0.11138    0.96896    1.000
    Si3110   Si       0.52849    0.11898    0.90562    1.000
    N3111    N        0.67474    0.07420    0.94907    1.000
    N3112    N        0.61938    0.11275    0.97326    1.000
    Si3113   Si       0.71062    0.09430    0.97133    1.000
    N3114    N        0.71667    0.10739    0.90210    1.000
    Si3115   Si       0.63579    0.06961    0.97141    1.000
    N3116    N        0.68313    0.12085    0.99124    1.000
    Si3117   Si       0.67584    0.09347    0.90809    1.000
    N3118    N        0.58806    0.15221    0.03975    1.000
    Si3119   Si       0.57076    0.13744    0.07375    1.000
    N3120    N        0.56119    0.16876    0.10303    1.000
    Si3121   Si       0.56002    0.17370    0.01287    1.000
    N3122    N        0.52111    0.17970    0.02932    1.000
    Si3123   Si       0.48640    0.15356    0.02627    1.000
    Si3124   Si       0.63039    0.16421    0.03177    1.000
    N3125    N        0.64907    0.13014    0.05272    1.000
    N3126    N        0.50959    0.13625    0.12957    1.000
    Si3127   Si       0.54341    0.15821    0.14130    1.000
    N3128    N        0.56899    0.13005    0.16476    1.000
    Si3129   Si       0.59558    0.13744    0.19899    1.000
    N3130    N        0.49269    0.16642    0.18827    1.000
    N3131    N        0.60040    0.18057    0.20321    1.000
    N3132    N        0.58684    0.13136    0.24290    1.000
    N3133    N        0.54003    0.18099    0.23297    1.000
    Si3134   Si       0.68532    0.13439    0.14642    1.000
    N3135    N        0.65143    0.15886    0.15737    1.000
    N3136    N        0.72100    0.16009    0.14706    1.000
    N3137    N        0.71262    0.17022    0.23558    1.000
    N3138    N        0.53587    0.14545    0.29798    1.000
    Si3139   Si       0.54772    0.14515    0.25496    1.000
    Si3140   Si       0.51859    0.18262    0.31285    1.000
    N3141    N        0.51684    0.18087    0.35620    1.000
    Si3142   Si       0.55885    0.17682    0.36962    1.000
    N3143    N        0.64471    0.17860    0.31891    1.000
    N3144    N        0.70046    0.13995    0.30198    1.000
    N3145    N        0.65038    0.15060    0.25951    1.000
    Si3146   Si       0.69266    0.14084    0.26043    1.000
    Si3147   Si       0.66638    0.14247    0.32865    1.000
    N3148    N        0.69683    0.13484    0.36610    1.000
    Si3149   Si       0.72662    0.13414    0.33452    1.000
    N3150    N        0.57532    0.13624    0.37575    1.000
    N3151    N        0.59555    0.14768    0.44144    1.000
    Si3152   Si       0.51420    0.14048    0.47924    1.000
    N3153    N        0.53018    0.17496    0.45865    1.000
    Si3154   Si       0.57014    0.17939    0.44428    1.000
    Si3155   Si       0.61044    0.13973    0.40035    1.000
    N3156    N        0.63928    0.16797    0.38247    1.000
    Si3157   Si       0.68614    0.17830    0.46756    1.000
    Si3158   Si       0.72891    0.13362    0.45571    1.000
    N3159    N        0.69375    0.15253    0.43158    1.000
    N3160    N        0.72949    0.17097    0.47897    1.000
    Si3161   Si       0.68166    0.16844    0.39305    1.000
    N3162    N        0.52075    0.15553    0.51900    1.000
    Si3163   Si       0.57400    0.14375    0.60725    1.000
    N3164    N        0.57077    0.13011    0.56691    1.000
    N3165    N        0.60147    0.17699    0.61364    1.000
    N3166    N        0.53333    0.15927    0.61570    1.000
    Si3167   Si       0.63046    0.15635    0.52599    1.000
    Si3168   Si       0.69370    0.17027    0.57506    1.000
    N3169    N        0.71867    0.15015    0.54580    1.000
    N3170    N        0.65042    0.16479    0.56506    1.000
    N3171    N        0.70268    0.14519    0.60917    1.000
    N3172    N        0.66378    0.15552    0.49731    1.000
    Si3173   Si       0.69344    0.12911    0.51804    1.000
    N3174    N        0.59975    0.16805    0.68617    1.000
    Si3175   Si       0.57993    0.12974    0.68148    1.000
    Si3176   Si       0.50221    0.12793    0.62203    1.000
    N3177    N        0.67379    0.15224    0.68824    1.000
    Si3178   Si       0.63877    0.17541    0.70173    1.000
    N3179    N        0.54385    0.16531    0.82732    1.000
    Si3180   Si       0.54057    0.17220    0.78356    1.000
    N3181    N        0.51252    0.13905    0.76916    1.000
    Si3182   Si       0.58373    0.17100    0.84223    1.000
    N3183    N        0.57268    0.15346    0.75871    1.000
    N3184    N        0.59706    0.14038    0.87039    1.000
    Si3185   Si       0.52135    0.18311    0.86128    1.000
    N3186    N        0.61121    0.16287    0.80814    1.000
    Si3187   Si       0.61458    0.16076    0.76505    1.000
    N3188    N        0.68394    0.16170    0.80120    1.000
    Si3189   Si       0.65113    0.15358    0.82707    1.000
    Si3190   Si       0.68783    0.13571    0.76595    1.000
    N3191    N        0.72370    0.15769    0.74871    1.000
    N3192    N        0.64754    0.18178    0.86114    1.000
    N3193    N        0.64472    0.12821    0.75395    1.000
    N3194    N        0.53763    0.16622    0.90814    1.000
    N3195    N        0.55508    0.15042    0.97566    1.000
    Si3196   Si       0.52225    0.16263    0.94906    1.000
    N3197    N        0.49795    0.12659    0.93657    1.000
    N3198    N        0.48506    0.16396    0.87172    1.000
    Si3199   Si       0.72340    0.14368    0.92792    1.000
    Si3200   Si       0.65508    0.13809    0.96178    1.000
    Si3201   Si       0.62797    0.16013    0.89622    1.000
    N3202    N        0.69154    0.16435    0.94947    1.000
    N3203    N        0.64920    0.12807    0.91706    1.000
    N3204    N        0.64378    0.17485    0.99017    1.000
    N3205    N        0.51053    0.21514    0.09553    1.000
    N3206    N        0.56238    0.22130    0.06059    1.000
    Si3207   Si       0.55378    0.21560    0.10656    1.000
    Si3208   Si       0.51866    0.21647    0.05189    1.000
    Si3209   Si       0.60034    0.22638    0.04151    1.000
    N3210    N        0.58717    0.20654    0.00138    1.000
    N3211    N        0.63708    0.20361    0.04910    1.000
    Si3212   Si       0.67984    0.21269    0.05503    1.000
    N3213    N        0.68591    0.20652    0.09741    1.000
    N3214    N        0.70234    0.18912    0.02840    1.000
    Si3215   Si       0.72191    0.19036    0.11586    1.000
    N3216    N        0.54256    0.19901    0.15695    1.000
    Si3217   Si       0.52188    0.19792    0.19479    1.000
    Si3218   Si       0.57969    0.20328    0.23212    1.000
    N3219    N        0.49833    0.23071    0.21167    1.000
    N3220    N        0.55685    0.24043    0.23069    1.000
    Si3221   Si       0.63313    0.19281    0.17753    1.000
    Si3222   Si       0.66001    0.23120    0.12208    1.000
    N3223    N        0.71949    0.23681    0.21451    1.000
    Si3224   Si       0.69102    0.20722    0.23225    1.000
    N3225    N        0.62401    0.21780    0.14366    1.000
    N3226    N        0.66264    0.21616    0.20016    1.000
    N3227    N        0.53500    0.21547    0.29071    1.000
    Si3228   Si       0.57739    0.22037    0.30093    1.000
    N3229    N        0.60261    0.20485    0.26893    1.000
    N3230    N        0.58173    0.19431    0.33684    1.000
    Si3231   Si       0.51576    0.23130    0.25283    1.000
    N3232    N        0.67207    0.22199    0.26704    1.000
    N3233    N        0.63109    0.23282    0.35994    1.000
    Si3234   Si       0.62295    0.19304    0.35128    1.000
    Si3235   Si       0.64237    0.18967    0.27730    1.000
    Si3236   Si       0.67521    0.24172    0.36552    1.000
    N3237    N        0.56997    0.19850    0.40599    1.000
    N3238    N        0.59184    0.20617    0.46779    1.000
    Si3239   Si       0.50806    0.21327    0.45213    1.000
    Si3240   Si       0.57136    0.24068    0.41583    1.000
    N3241    N        0.66469    0.21485    0.45607    1.000
    N3242    N        0.69844    0.20661    0.38032    1.000
    Si3243   Si       0.62496    0.23250    0.45829    1.000
    Si3244   Si       0.73036    0.22498    0.40142    1.000
    Si3245   Si       0.69341    0.24558    0.46969    1.000
    N3246    N        0.54704    0.22570    0.52248    1.000
    Si3247   Si       0.51375    0.19768    0.52138    1.000
    Si3248   Si       0.58655    0.22047    0.50912    1.000
    Si3249   Si       0.51993    0.19974    0.60009    1.000
    N3250    N        0.55088    0.22902    0.58945    1.000
    N3251    N        0.49543    0.20161    0.56210    1.000
    N3252    N        0.60520    0.19103    0.53582    1.000
    Si3253   Si       0.61709    0.19425    0.57726    1.000
    N3254    N        0.70454    0.21177    0.57589    1.000
    Si3255   Si       0.71842    0.23080    0.61344    1.000
    N3256    N        0.71175    0.22748    0.50340    1.000
    N3257    N        0.62232    0.23473    0.59154    1.000
    Si3258   Si       0.70750    0.24311    0.54451    1.000
    Si3259   Si       0.52165    0.22773    0.73471    1.000
    N3260    N        0.51305    0.19942    0.70424    1.000
    N3261    N        0.58522    0.23239    0.65148    1.000
    Si3262   Si       0.60651    0.19473    0.65157    1.000
    N3263    N        0.49571    0.20924    0.63602    1.000
    N3264    N        0.69784    0.21489    0.70900    1.000
    N3265    N        0.64682    0.20251    0.66577    1.000
    N3266    N        0.63404    0.19169    0.74088    1.000
    N3267    N        0.72330    0.20588    0.64860    1.000
    Si3268   Si       0.68948    0.19248    0.67214    1.000
    Si3269   Si       0.72586    0.19883    0.73590    1.000
    N3270    N        0.52076    0.21020    0.77372    1.000
    N3271    N        0.50480    0.22042    0.84117    1.000
    Si3272   Si       0.48809    0.21628    0.80157    1.000
    N3273    N        0.57089    0.20629    0.86718    1.000
    Si3274   Si       0.71585    0.19283    0.80424    1.000
    N3275    N        0.70955    0.21138    0.84437    1.000
    N3276    N        0.65467    0.22226    0.80509    1.000
    Si3277   Si       0.64812    0.22645    0.76191    1.000
    Si3278   Si       0.66683    0.21984    0.85343    1.000
    N3279    N        0.72828    0.22036    0.77238    1.000
    N3280    N        0.49159    0.22861    0.90083    1.000
    N3281    N        0.55618    0.22889    0.93234    1.000
    N3282    N        0.50072    0.19900    0.96183    1.000
    Si3283   Si       0.51381    0.23285    0.93766    1.000
    Si3284   Si       0.57191    0.19546    0.90850    1.000
    N3285    N        0.60974    0.18479    0.92709    1.000
    Si3286   Si       0.61653    0.20097    0.96969    1.000
    N3287    N        0.68690    0.22837    0.97075    1.000
    Si3288   Si       0.70127    0.23961    0.92979    1.000
    N3289    N        0.67314    0.23130    0.89759    1.000
    Si3290   Si       0.68564    0.18744    0.98682    1.000
    N3291    N        0.73849    0.24113    0.90613    1.000
    N3292    N        0.51186    0.28030    0.09000    1.000
    N3293    N        0.54887    0.28413    0.01711    1.000
    Si3294   Si       0.55101    0.29186    0.10673    1.000
    N3295    N        0.56871    0.25552    0.11827    1.000
    Si3296   Si       0.48719    0.24944    0.10822    1.000
    Si3297   Si       0.58140    0.30183    0.03890    1.000
    N3298    N        0.61179    0.26985    0.04555    1.000
    N3299    N        0.68686    0.25443    0.05289    1.000
    Si3300   Si       0.72359    0.27686    0.06297    1.000
    Si3301   Si       0.65242    0.28195    0.04592    1.000
    N3302    N        0.65788    0.28994    0.00110    1.000
    N3303    N        0.73215    0.28767    0.10336    1.000
    N3304    N        0.63691    0.27177    0.11621    1.000
    Si3305   Si       0.56867    0.27823    0.21558    1.000
    N3306    N        0.59705    0.27538    0.18188    1.000
    Si3307   Si       0.60338    0.25577    0.14429    1.000
    N3308    N        0.59985    0.29332    0.24361    1.000
    N3309    N        0.68916    0.24722    0.14845    1.000
    Si3310   Si       0.72843    0.26463    0.13966    1.000
    Si3311   Si       0.62508    0.29776    0.20867    1.000
    N3312    N        0.66632    0.28547    0.20877    1.000
    Si3313   Si       0.68602    0.25161    0.19168    1.000
    N3314    N        0.72474    0.29147    0.17865    1.000
    N3315    N        0.59523    0.25945    0.30844    1.000
    Si3316   Si       0.59882    0.26225    0.35105    1.000
    Si3317   Si       0.61313    0.29054    0.28402    1.000
    N3318    N        0.65686    0.29160    0.28613    1.000
    Si3319   Si       0.68490    0.25795    0.28593    1.000
    N3320    N        0.72654    0.26964    0.27211    1.000
    N3321    N        0.69483    0.25068    0.32868    1.000
    N3322    N        0.61590    0.29874    0.36841    1.000
    Si3323   Si       0.73778    0.25616    0.33505    1.000
    N3324    N        0.49705    0.27235    0.37806    1.000
    N3325    N        0.56561    0.26015    0.37626    1.000
    Si3326   Si       0.53412    0.29286    0.37927    1.000
    Si3327   Si       0.52134    0.28650    0.44766    1.000
    N3328    N        0.53577    0.29188    0.48898    1.000
    N3329    N        0.60964    0.25893    0.42738    1.000
    N3330    N        0.53484    0.24502    0.43970    1.000
    N3331    N        0.72075    0.24781    0.43646    1.000
    Si3332   Si       0.71230    0.28185    0.40834    1.000
    N3333    N        0.67917    0.28438    0.48428    1.000
    N3334    N        0.67170    0.27138    0.39768    1.000
    Si3335   Si       0.63298    0.28919    0.40689    1.000
    N3336    N        0.73778    0.26249    0.37758    1.000
    N3337    N        0.50626    0.27636    0.55493    1.000
    N3338    N        0.57330    0.28855    0.54721    1.000
    Si3339   Si       0.54395    0.25617    0.55348    1.000
    N3340    N        0.56953    0.28980    0.61162    1.000
    Si3341   Si       0.58261    0.24731    0.61150    1.000
    Si3342   Si       0.49926    0.28857    0.51403    1.000
    Si3343   Si       0.65335    0.26619    0.58955    1.000
    N3344    N        0.66680    0.26537    0.54616    1.000
    Si3345   Si       0.64508    0.27951    0.51183    1.000
    N3346    N        0.61883    0.24855    0.49919    1.000
    N3347    N        0.68782    0.26177    0.61650    1.000
    N3348    N        0.50451    0.27837    0.62746    1.000
    Si3349   Si       0.57646    0.26045    0.68140    1.000
    N3350    N        0.49862    0.26673    0.73047    1.000
    Si3351   Si       0.52923    0.29492    0.71345    1.000
    N3352    N        0.55409    0.29903    0.67755    1.000
    N3353    N        0.55890    0.24523    0.72041    1.000
    N3354    N        0.61070    0.27518    0.70530    1.000
    Si3355   Si       0.58731    0.27020    0.74050    1.000
    N3356    N        0.73781    0.27045    0.72454    1.000
    Si3357   Si       0.69625    0.25870    0.71449    1.000
    Si3358   Si       0.69730    0.29009    0.64775    1.000
    N3359    N        0.67683    0.28412    0.68349    1.000
    N3360    N        0.58638    0.26423    0.82906    1.000
    Si3361   Si       0.55124    0.28984    0.82666    1.000
    Si3362   Si       0.49960    0.25555    0.86976    1.000
    N3363    N        0.60872    0.24939    0.77071    1.000
    N3364    N        0.53969    0.27171    0.86647    1.000
    N3365    N        0.51492    0.29948    0.79929    1.000
    Si3366   Si       0.57617    0.24809    0.86730    1.000
    N3367    N        0.65033    0.26318    0.85036    1.000
    Si3368   Si       0.62387    0.25769    0.81120    1.000
    N3369    N        0.63879    0.30146    0.80036    1.000
    N3370    N        0.66998    0.26144    0.74729    1.000
    Si3371   Si       0.66577    0.30067    0.76490    1.000
    N3372    N        0.50145    0.26933    0.95513    1.000
    Si3373   Si       0.53150    0.29357    0.97799    1.000
    N3374    N        0.60435    0.25704    0.89745    1.000
    N3375    N        0.56891    0.29389    0.95528    1.000
    Si3376   Si       0.58708    0.25889    0.93732    1.000
    N3377    N        0.62103    0.24511    0.95984    1.000
    Si3378   Si       0.64659    0.26658    0.89575    1.000
    N3379    N        0.68072    0.27883    0.93292    1.000
    Si3380   Si       0.65964    0.26244    0.96902    1.000
    N3381    N        0.73669    0.29998    0.97032    1.000
    N3382    N        0.60018    0.33288    0.01097    1.000
    N3383    N        0.57183    0.32057    0.07720    1.000
    Si3384   Si       0.59058    0.35557    0.09386    1.000
    N3385    N        0.51137    0.35674    0.08486    1.000
    Si3386   Si       0.49172    0.31725    0.07838    1.000
    N3387    N        0.61649    0.33508    0.12264    1.000
    N3388    N        0.72211    0.31665    0.04253    1.000
    Si3389   Si       0.69225    0.34516    0.05324    1.000
    N3390    N        0.66446    0.31515    0.07138    1.000
    Si3391   Si       0.65278    0.31156    0.11442    1.000
    Si3392   Si       0.64315    0.33242    0.99798    1.000
    N3393    N        0.53946    0.31688    0.13971    1.000
    N3394    N        0.53923    0.30747    0.21204    1.000
    Si3395   Si       0.52136    0.32772    0.17685    1.000
    Si3396   Si       0.51757    0.32634    0.24329    1.000
    Si3397   Si       0.52734    0.35698    0.12466    1.000
    N3398    N        0.70614    0.34645    0.21494    1.000
    N3399    N        0.62174    0.33932    0.19988    1.000
    N3400    N        0.67120    0.32884    0.15128    1.000
    Si3401   Si       0.69264    0.31792    0.18733    1.000
    Si3402   Si       0.63233    0.35130    0.15962    1.000
    N3403    N        0.53260    0.32676    0.28324    1.000
    N3404    N        0.54138    0.32302    0.34920    1.000
    Si3405   Si       0.50993    0.33298    0.32117    1.000
    N3406    N        0.60383    0.32821    0.30690    1.000
    Si3407   Si       0.57075    0.35130    0.29191    1.000
    Si3408   Si       0.56010    0.36042    0.35997    1.000
    Si3409   Si       0.62278    0.33626    0.34722    1.000
    N3410    N        0.66346    0.34591    0.33443    1.000
    Si3411   Si       0.66701    0.33513    0.29201    1.000
    N3412    N        0.70942    0.33540    0.28433    1.000
    N3413    N        0.72943    0.34600    0.36154    1.000
    N3414    N        0.54015    0.31123    0.41839    1.000
    Si3415   Si       0.53562    0.35410    0.42605    1.000
    N3416    N        0.67609    0.34747    0.47673    1.000
    Si3417   Si       0.70617    0.31821    0.48878    1.000
    N3418    N        0.70966    0.31967    0.42385    1.000
    N3419    N        0.63423    0.32951    0.42575    1.000
    Si3420   Si       0.67330    0.34486    0.43244    1.000
    N3421    N        0.51023    0.33007    0.59994    1.000
    Si3422   Si       0.59110    0.31263    0.58170    1.000
    N3423    N        0.59150    0.35736    0.57813    1.000
    Si3424   Si       0.57048    0.30967    0.50811    1.000
    N3425    N        0.55624    0.35060    0.50140    1.000
    Si3426   Si       0.51256    0.35904    0.49877    1.000
    N3427    N        0.61889    0.31495    0.50621    1.000
    Si3428   Si       0.72312    0.34485    0.61115    1.000
    N3429    N        0.71799    0.32294    0.53147    1.000
    Si3430   Si       0.64218    0.34998    0.50413    1.000
    N3431    N        0.63287    0.30451    0.59664    1.000
    N3432    N        0.65731    0.35827    0.54302    1.000
    N3433    N        0.50619    0.33239    0.71119    1.000
    Si3434   Si       0.58196    0.33295    0.67441    1.000
    N3435    N        0.56309    0.34949    0.63805    1.000
    Si3436   Si       0.53806    0.30995    0.63244    1.000
    N3437    N        0.62569    0.32968    0.66445    1.000
    Si3438   Si       0.64525    0.33285    0.62689    1.000
    N3439    N        0.65155    0.32955    0.73538    1.000
    Si3440   Si       0.64045    0.30565    0.69797    1.000
    N3441    N        0.68849    0.32890    0.63168    1.000
    N3442    N        0.71775    0.33648    0.70657    1.000
    N3443    N        0.56944    0.32784    0.81191    1.000
    Si3444   Si       0.54296    0.33017    0.77625    1.000
    N3445    N        0.51229    0.34952    0.84878    1.000
    Si3446   Si       0.61125    0.33448    0.80320    1.000
    N3447    N        0.55856    0.30449    0.74705    1.000
    Si3448   Si       0.55592    0.35953    0.84463    1.000
    Si3449   Si       0.72661    0.33221    0.86363    1.000
    N3450    N        0.69513    0.31509    0.83929    1.000
    N3451    N        0.70423    0.31777    0.77311    1.000
    N3452    N        0.62868    0.34605    0.84096    1.000
    Si3453   Si       0.65337    0.30786    0.84447    1.000
    Si3454   Si       0.72356    0.30718    0.80808    1.000
    Si3455   Si       0.71865    0.35020    0.74889    1.000
    Si3456   Si       0.58956    0.33155    0.96673    1.000
    N3457    N        0.51074    0.33092    0.98360    1.000
    N3458    N        0.57741    0.35745    0.88247    1.000
    Si3459   Si       0.61992    0.34852    0.88413    1.000
    N3460    N        0.73258    0.30594    0.89687    1.000
    N3461    N        0.69742    0.35055    0.93527    1.000
    N3462    N        0.63164    0.34133    0.95584    1.000
    Si3463   Si       0.71056    0.30866    0.93580    1.000
    N3464    N        0.64283    0.31071    0.88827    1.000
    N3465    N        0.54786    0.37742    0.02319    1.000
    Si3466   Si       0.59164    0.37523    0.02497    1.000
    Si3467   Si       0.52098    0.38998    0.05708    1.000
    N3468    N        0.60493    0.38581    0.06576    1.000
    N3469    N        0.56251    0.38181    0.11550    1.000
    N3470    N        0.61567    0.40143    0.00190    1.000
    N3471    N        0.70699    0.37918    0.07618    1.000
    Si3472   Si       0.66094    0.39989    0.00456    1.000
    Si3473   Si       0.73506    0.37937    0.11243    1.000
    N3474    N        0.67121    0.35941    0.01640    1.000
    Si3475   Si       0.51852    0.40885    0.18060    1.000
    N3476    N        0.51260    0.36835    0.23265    1.000
    N3477    N        0.51958    0.36969    0.16441    1.000
    Si3478   Si       0.54302    0.39715    0.24472    1.000
    Si3479   Si       0.66773    0.41523    0.13017    1.000
    N3480    N        0.63705    0.39264    0.15299    1.000
    N3481    N        0.63203    0.40405    0.21750    1.000
    Si3482   Si       0.61684    0.36593    0.23323    1.000
    N3483    N        0.70803    0.40442    0.13941    1.000
    N3484    N        0.56154    0.38066    0.32248    1.000
    N3485    N        0.57881    0.37118    0.25419    1.000
    N3486    N        0.48918    0.37029    0.33268    1.000
    Si3487   Si       0.50186    0.39745    0.36694    1.000
    Si3488   Si       0.54514    0.42080    0.31575    1.000
    N3489    N        0.52488    0.41952    0.27741    1.000
    Si3490   Si       0.71016    0.36617    0.25248    1.000
    N3491    N        0.70180    0.40728    0.34356    1.000
    Si3492   Si       0.65396    0.40892    0.25511    1.000
    Si3493   Si       0.69061    0.36681    0.35952    1.000
    N3494    N        0.65031    0.36539    0.26537    1.000
    N3495    N        0.69785    0.40886    0.25298    1.000
    N3496    N        0.57468    0.37094    0.43858    1.000
    Si3497   Si       0.57791    0.38249    0.48117    1.000
    N3498    N        0.53172    0.37394    0.38896    1.000
    N3499    N        0.50698    0.36848    0.45498    1.000
    Si3500   Si       0.61108    0.36711    0.41569    1.000
    N3501    N        0.60123    0.36253    0.37387    1.000
    N3502    N        0.67907    0.37070    0.39929    1.000
    Si3503   Si       0.72128    0.40326    0.47575    1.000
    Si3504   Si       0.67508    0.41044    0.41819    1.000
    Si3505   Si       0.64073    0.41527    0.47149    1.000
    N3506    N        0.73016    0.38430    0.43850    1.000
    N3507    N        0.63316    0.40166    0.43108    1.000
    N3508    N        0.61940    0.38562    0.49358    1.000
    N3509    N        0.52598    0.39443    0.60291    1.000
    Si3510   Si       0.56664    0.37955    0.60684    1.000
    N3511    N        0.49760    0.39727    0.51373    1.000
    Si3512   Si       0.49286    0.36733    0.61179    1.000
    N3513    N        0.56102    0.41568    0.50070    1.000
    N3514    N        0.58569    0.41968    0.61120    1.000
    N3515    N        0.62073    0.41422    0.55514    1.000
    N3516    N        0.72166    0.38997    0.51691    1.000
    Si3517   Si       0.63099    0.37631    0.57041    1.000
    N3518    N        0.71843    0.37839    0.58288    1.000
    N3519    N        0.64587    0.37392    0.61290    1.000
    Si3520   Si       0.70237    0.36226    0.54518    1.000
    N3521    N        0.51068    0.39772    0.69364    1.000
    Si3522   Si       0.52973    0.36835    0.72140    1.000
    Si3523   Si       0.58996    0.40192    0.71602    1.000
    N3524    N        0.57091    0.36067    0.70617    1.000
    Si3525   Si       0.72333    0.37186    0.67948    1.000
    Si3526   Si       0.66787    0.40384    0.63415    1.000
    N3527    N        0.69042    0.39703    0.67133    1.000
    N3528    N        0.63242    0.40114    0.72007    1.000
    N3529    N        0.55476    0.39709    0.82341    1.000
    Si3530   Si       0.54146    0.40444    0.78320    1.000
    N3531    N        0.52821    0.36730    0.76474    1.000
    N3532    N        0.73732    0.40868    0.81280    1.000
    Si3533   Si       0.63779    0.38581    0.82643    1.000
    Si3534   Si       0.71158    0.40177    0.85092    1.000
    N3535    N        0.67764    0.39881    0.82440    1.000
    N3536    N        0.69149    0.38406    0.75722    1.000
    N3537    N        0.62391    0.37228    0.78495    1.000
    Si3538   Si       0.69827    0.41474    0.78732    1.000
    Si3539   Si       0.64922    0.37239    0.74889    1.000
    N3540    N        0.61799    0.41787    0.84897    1.000
    Si3541   Si       0.49153    0.36755    0.88080    1.000
    Si3542   Si       0.53308    0.36919    0.98303    1.000
    N3543    N        0.50146    0.39469    0.97140    1.000
    N3544    N        0.51961    0.38615    0.90551    1.000
    Si3545   Si       0.56202    0.38268    0.91417    1.000
    N3546    N        0.56415    0.36467    0.95385    1.000
    Si3547   Si       0.49998    0.41501    0.93304    1.000
    Si3548   Si       0.73063    0.37169    0.91980    1.000
    N3549    N        0.66994    0.40523    0.96160    1.000
    Si3550   Si       0.65957    0.36942    0.93935    1.000
    N3551    N        0.72350    0.37137    0.87707    1.000
    N3552    N        0.64120    0.38049    0.90104    1.000
    N3553    N        0.58861    0.45015    0.10707    1.000
    N3554    N        0.53109    0.42848    0.07591    1.000
    Si3555   Si       0.52215    0.47013    0.06430    1.000
    Si3556   Si       0.55331    0.42480    0.11420    1.000
    Si3557   Si       0.60541    0.44247    0.00143    1.000
    N3558    N        0.61033    0.45549    0.04089    1.000
    N3559    N        0.48790    0.47280    0.04041    1.000
    Si3560   Si       0.61357    0.42902    0.07762    1.000
    N3561    N        0.71672    0.45090    0.08045    1.000
    N3562    N        0.68918    0.42963    0.02287    1.000
    Si3563   Si       0.71576    0.46169    0.00540    1.000
    N3564    N        0.65458    0.42283    0.09045    1.000
    Si3565   Si       0.69138    0.42034    0.06561    1.000
    Si3566   Si       0.56456    0.46103    0.21062    1.000
    N3567    N        0.52278    0.43261    0.14336    1.000
    N3568    N        0.60004    0.45688    0.18405    1.000
    N3569    N        0.49824    0.46865    0.24028    1.000
    N3570    N        0.55021    0.42065    0.21025    1.000
    Si3571   Si       0.49134    0.45544    0.12792    1.000
    Si3572   Si       0.73582    0.42625    0.16382    1.000
    N3573    N        0.66206    0.44865    0.15879    1.000
    Si3574   Si       0.63048    0.42592    0.18123    1.000
    N3575    N        0.71704    0.44824    0.19748    1.000
    Si3576   Si       0.72401    0.44095    0.23965    1.000
    Si3577   Si       0.68674    0.47458    0.18203    1.000
    N3578    N        0.57829    0.44671    0.31065    1.000
    Si3579   Si       0.60125    0.46570    0.28073    1.000
    N3580    N        0.52332    0.43327    0.35058    1.000
    Si3581   Si       0.60430    0.46454    0.34224    1.000
    Si3582   Si       0.53513    0.47100    0.36701    1.000
    N3583    N        0.63903    0.44808    0.26805    1.000
    Si3584   Si       0.67615    0.44055    0.35253    1.000
    N3585    N        0.63320    0.43577    0.35007    1.000
    Si3586   Si       0.72470    0.47344    0.30214    1.000
    N3587    N        0.69260    0.47304    0.32996    1.000
    N3588    N        0.70684    0.47574    0.26116    1.000
    Si3589   Si       0.66338    0.48051    0.25237    1.000
    N3590    N        0.49817    0.43553    0.46002    1.000
    N3591    N        0.51774    0.47763    0.40716    1.000
    Si3592   Si       0.49145    0.47539    0.44302    1.000
    Si3593   Si       0.68847    0.46679    0.46562    1.000
    N3594    N        0.62293    0.44918    0.49015    1.000
    N3595    N        0.68604    0.44399    0.39472    1.000
    Si3596   Si       0.71526    0.47590    0.39887    1.000
    N3597    N        0.68252    0.42478    0.46217    1.000
    N3598    N        0.72607    0.47536    0.44066    1.000
    Si3599   Si       0.60463    0.44645    0.58208    1.000
    Si3600   Si       0.51622    0.43561    0.60218    1.000
    N3601    N        0.58366    0.46254    0.54702    1.000
    N3602    N        0.51273    0.46785    0.52248    1.000
    Si3603   Si       0.59949    0.43102    0.52062    1.000
    N3604    N        0.53663    0.47165    0.58973    1.000
    Si3605   Si       0.51955    0.43087    0.49892    1.000
    Si3606   Si       0.67176    0.47368    0.60538    1.000
    N3607    N        0.72468    0.44871    0.55144    1.000
    N3608    N        0.68394    0.43123    0.60499    1.000
    N3609    N        0.62807    0.47551    0.60375    1.000
    Si3610   Si       0.72018    0.42066    0.58548    1.000
    N3611    N        0.51785    0.45083    0.64427    1.000
    Si3612   Si       0.59609    0.43674    0.65001    1.000
    Si3613   Si       0.53103    0.43599    0.68481    1.000
    N3614    N        0.52177    0.46728    0.71300    1.000
    N3615    N        0.57173    0.42243    0.68322    1.000
    N3616    N        0.63710    0.42901    0.65717    1.000
    N3617    N        0.67331    0.46200    0.70730    1.000
    Si3618   Si       0.65876    0.42273    0.69366    1.000
    N3619    N        0.59142    0.45458    0.80678    1.000
    Si3620   Si       0.57401    0.43137    0.84070    1.000
    N3621    N        0.55316    0.46384    0.86376    1.000
    N3622    N        0.51549    0.43993    0.78029    1.000
    Si3623   Si       0.54528    0.45693    0.74905    1.000
    N3624    N        0.56705    0.42010    0.74969    1.000
    N3625    N        0.65738    0.44528    0.77929    1.000
    Si3626   Si       0.63353    0.45122    0.81433    1.000
    N3627    N        0.71979    0.44313    0.76033    1.000
    Si3628   Si       0.68310    0.46479    0.74939    1.000
    N3629    N        0.65032    0.47552    0.84551    1.000
    N3630    N        0.52582    0.44898    0.93221    1.000
    Si3631   Si       0.56059    0.45733    0.90597    1.000
    Si3632   Si       0.54299    0.47375    0.96465    1.000
    N3633    N        0.56326    0.45128    0.99335    1.000
    N3634    N        0.58346    0.42061    0.90653    1.000
    N3635    N        0.65317    0.45085    0.90820    1.000
    N3636    N        0.70218    0.47145    0.96524    1.000
    Si3637   Si       0.66539    0.44683    0.95115    1.000
    N3638    N        0.63277    0.46216    0.97519    1.000
    Si3639   Si       0.67805    0.46885    0.87734    1.000
    N3640    N        0.70821    0.43817    0.87243    1.000
    Si3641   Si       0.62416    0.41988    0.89158    1.000
    N3642    N        0.54696    0.50125    0.04594    1.000
    Si3643   Si       0.58904    0.49502    0.03847    1.000
    Si3644   Si       0.59602    0.49647    0.11479    1.000
    N3645    N        0.50893    0.48566    0.10247    1.000
    N3646    N        0.60741    0.51515    0.00407    1.000
    Si3647   Si       0.52188    0.52306    0.11619    1.000
    N3648    N        0.60927    0.51182    0.07581    1.000
    N3649    N        0.67469    0.51029    0.09031    1.000
    Si3650   Si       0.71522    0.49462    0.07811    1.000
    N3651    N        0.72751    0.49995    0.03649    1.000
    Si3652   Si       0.64623    0.52893    0.06201    1.000
    N3653    N        0.66863    0.53533    0.02198    1.000
    Si3654   Si       0.71382    0.53931    0.02691    1.000
    N3655    N        0.56044    0.51269    0.13128    1.000
    Si3656   Si       0.51119    0.50474    0.22311    1.000
    N3657    N        0.54018    0.49418    0.19442    1.000
    Si3658   Si       0.55871    0.52724    0.17167    1.000
    N3659    N        0.59455    0.52746    0.20075    1.000
    Si3660   Si       0.57586    0.52039    0.24058    1.000
    N3661    N        0.49422    0.53455    0.14832    1.000
    N3662    N        0.62830    0.50739    0.14212    1.000
    N3663    N        0.69651    0.51198    0.16174    1.000
    N3664    N        0.65728    0.48790    0.21071    1.000
    Si3665   Si       0.62217    0.49575    0.18430    1.000
    Si3666   Si       0.66776    0.52285    0.12985    1.000
    N3667    N        0.70648    0.54147    0.23137    1.000
    Si3668   Si       0.72242    0.53431    0.19068    1.000
    N3669    N        0.51992    0.51072    0.35542    1.000
    N3670    N        0.53386    0.53140    0.24771    1.000
    N3671    N        0.61744    0.49366    0.31308    1.000
    N3672    N        0.57805    0.48169    0.37264    1.000
    N3673    N        0.57778    0.47871    0.24755    1.000
    Si3674   Si       0.62909    0.53146    0.29595    1.000
    Si3675   Si       0.70685    0.52285    0.26988    1.000
    N3676    N        0.66151    0.51995    0.27005    1.000
    N3677    N        0.55608    0.53881    0.41027    1.000
    Si3678   Si       0.58687    0.50977    0.40352    1.000
    Si3679   Si       0.51971    0.52246    0.39794    1.000
    N3680    N        0.58733    0.49009    0.44196    1.000
    N3681    N        0.49352    0.50554    0.47175    1.000
    N3682    N        0.65706    0.48944    0.44724    1.000
    Si3683   Si       0.61970    0.48684    0.46876    1.000
    N3684    N        0.69405    0.51441    0.39358    1.000
    Si3685   Si       0.66574    0.52604    0.42318    1.000
    N3686    N        0.62577    0.53018    0.40013    1.000
    N3687    N        0.55750    0.52499    0.54108    1.000
    Si3688   Si       0.54604    0.48448    0.54726    1.000
    Si3689   Si       0.60057    0.53903    0.52625    1.000
    Si3690   Si       0.70817    0.48742    0.54088    1.000
    N3691    N        0.68194    0.49672    0.57157    1.000
    N3692    N        0.69285    0.49108    0.50105    1.000
    N3693    N        0.62426    0.51891    0.49671    1.000
    Si3694   Si       0.66584    0.53792    0.56930    1.000
    Si3695   Si       0.71134    0.52552    0.62466    1.000
    Si3696   Si       0.66782    0.52666    0.49431    1.000
    Si3697   Si       0.54412    0.48486    0.63010    1.000
    Si3698   Si       0.50110    0.50560    0.72581    1.000
    N3699    N        0.52831    0.52185    0.64563    1.000
    Si3700   Si       0.57971    0.52910    0.73022    1.000
    N3701    N        0.58122    0.47757    0.64809    1.000
    N3702    N        0.64238    0.50996    0.66500    1.000
    Si3703   Si       0.72253    0.52472    0.74060    1.000
    Si3704   Si       0.61267    0.50201    0.63425    1.000
    N3705    N        0.69580    0.48802    0.63962    1.000
    N3706    N        0.62721    0.52913    0.72879    1.000
    N3707    N        0.70751    0.53051    0.70018    1.000
    Si3708   Si       0.67981    0.49618    0.67998    1.000
    Si3709   Si       0.58644    0.49375    0.79033    1.000
    N3710    N        0.55794    0.51758    0.81203    1.000
    Si3711   Si       0.53906    0.50110    0.84543    1.000
    N3712    N        0.49595    0.51246    0.84125    1.000
    N3713    N        0.57438    0.48912    0.74885    1.000
    Si3714   Si       0.63965    0.51678    0.83742    1.000
    N3715    N        0.62550    0.51325    0.79760    1.000
    N3716    N        0.68716    0.50783    0.75919    1.000
    Si3717   Si       0.65022    0.52917    0.76311    1.000
    Si3718   Si       0.49074    0.52910    0.94739    1.000
    N3719    N        0.51693    0.50589    0.97134    1.000
    N3720    N        0.57656    0.48598    0.93711    1.000
    Si3721   Si       0.49865    0.53274    0.87893    1.000
    Si3722   Si       0.60925    0.49823    0.96406    1.000
    N3723    N        0.61639    0.52898    0.87269    1.000
    N3724    N        0.62738    0.53278    0.94657    1.000
    N3725    N        0.69741    0.50317    0.89439    1.000
    Si3726   Si       0.71591    0.49817    0.93325    1.000
    N3727    N        0.52102    0.55114    0.08440    1.000
    N3728    N        0.54744    0.57044    0.02035    1.000
    Si3729   Si       0.52627    0.53959    0.04174    1.000
    N3730    N        0.48561    0.55202    0.02503    1.000
    Si3731   Si       0.51789    0.59392    0.09700    1.000
    N3732    N        0.61655    0.58420    0.00451    1.000
    N3733    N        0.71888    0.56547    0.06309    1.000
    N3734    N        0.64437    0.57047    0.07662    1.000
    Si3735   Si       0.63107    0.58527    0.11483    1.000
    Si3736   Si       0.68401    0.59018    0.06796    1.000
    N3737    N        0.73959    0.56299    0.00132    1.000
    N3738    N        0.54444    0.56763    0.17124    1.000
    Si3739   Si       0.50146    0.57542    0.16763    1.000
    N3740    N        0.60279    0.57988    0.15019    1.000
    Si3741   Si       0.61199    0.56827    0.19222    1.000
    Si3742   Si       0.66485    0.55398    0.23909    1.000
    N3743    N        0.66573    0.56715    0.13401    1.000
    N3744    N        0.65485    0.56656    0.19840    1.000
    Si3745   Si       0.68039    0.58795    0.16998    1.000
    N3746    N        0.72130    0.57723    0.17974    1.000
    Si3747   Si       0.51492    0.55245    0.27928    1.000
    N3748    N        0.59978    0.54744    0.26700    1.000
    Si3749   Si       0.60794    0.59096    0.26149    1.000
    N3750    N        0.51647    0.59444    0.28766    1.000
    N3751    N        0.63261    0.55860    0.33160    1.000
    N3752    N        0.70189    0.56069    0.29655    1.000
    N3753    N        0.65140    0.58565    0.26409    1.000
    Si3754   Si       0.67925    0.59629    0.29426    1.000
    Si3755   Si       0.54501    0.57693    0.43008    1.000
    N3756    N        0.51839    0.57264    0.46286    1.000
    N3757    N        0.52189    0.59424    0.39522    1.000
    Si3758   Si       0.71572    0.57375    0.45987    1.000
    N3759    N        0.73536    0.55512    0.42484    1.000
    N3760    N        0.67435    0.57661    0.39179    1.000
    Si3761   Si       0.63516    0.56342    0.37494    1.000
    Si3762   Si       0.71074    0.55399    0.38748    1.000
    N3763    N        0.67874    0.54955    0.45984    1.000
    Si3764   Si       0.60109    0.56694    0.59311    1.000
    N3765    N        0.56088    0.58049    0.57951    1.000
    N3766    N        0.50922    0.57657    0.53082    1.000
    N3767    N        0.58223    0.57724    0.51284    1.000
    Si3768   Si       0.55016    0.56729    0.54135    1.000
    N3769    N        0.49876    0.55536    0.59683    1.000
    Si3770   Si       0.52888    0.58583    0.60689    1.000
    Si3771   Si       0.72383    0.55977    0.53179    1.000
    N3772    N        0.67680    0.54950    0.60868    1.000
    N3773    N        0.72099    0.58798    0.56653    1.000
    N3774    N        0.67871    0.54991    0.52858    1.000
    N3775    N        0.62248    0.54398    0.56394    1.000
    N3776    N        0.59142    0.53890    0.62582    1.000
    N3777    N        0.54715    0.58905    0.64872    1.000
    Si3778   Si       0.56105    0.54846    0.65478    1.000
    N3779    N        0.58310    0.54701    0.69073    1.000
    Si3780   Si       0.54199    0.57701    0.74080    1.000
    N3781    N        0.52883    0.53864    0.72538    1.000
    N3782    N        0.64426    0.57938    0.66642    1.000
    Si3783   Si       0.62719    0.54418    0.68688    1.000
    Si3784   Si       0.66081    0.58452    0.62777    1.000
    N3785    N        0.73392    0.55993    0.64195    1.000
    Si3786   Si       0.56043    0.55798    0.79802    1.000
    N3787    N        0.58084    0.56336    0.75939    1.000
    N3788    N        0.58053    0.57665    0.82947    1.000
    N3789    N        0.52652    0.58115    0.78285    1.000
    Si3790   Si       0.61849    0.58849    0.75826    1.000
    N3791    N        0.65279    0.57100    0.77405    1.000
    Si3792   Si       0.67207    0.57466    0.81148    1.000
    N3793    N        0.73828    0.56165    0.75587    1.000
    N3794    N        0.67851    0.53922    0.83684    1.000
    N3795    N        0.70978    0.59409    0.80841    1.000
    Si3796   Si       0.58135    0.55774    0.87001    1.000
    N3797    N        0.60314    0.58305    0.90010    1.000
    N3798    N        0.50749    0.56897    0.95096    1.000
    Si3799   Si       0.49244    0.59198    0.91785    1.000
    Si3800   Si       0.52262    0.58607    0.98839    1.000
    N3801    N        0.54416    0.53528    0.87638    1.000
    N3802    N        0.66929    0.57908    0.96827    1.000
    Si3803   Si       0.69988    0.54129    0.87338    1.000
    Si3804   Si       0.63907    0.54840    0.99003    1.000
    N3805    N        0.67291    0.56747    0.89771    1.000
    N3806    N        0.72291    0.54024    0.94027    1.000
    Si3807   Si       0.63273    0.55131    0.90819    1.000
    Si3808   Si       0.69605    0.57648    0.93531    1.000
    Si3809   Si       0.58594    0.63648    0.08859    1.000
    N3810    N        0.58011    0.63341    0.04492    1.000
    N3811    N        0.55882    0.60641    0.10662    1.000
    Si3812   Si       0.57744    0.60119    0.01230    1.000
    N3813    N        0.49422    0.61563    0.00587    1.000
    N3814    N        0.48883    0.61057    0.07088    1.000
    N3815    N        0.62677    0.62782    0.10557    1.000
    N3816    N        0.69867    0.62251    0.09272    1.000
    N3817    N        0.68670    0.60660    0.02755    1.000
    Si3818   Si       0.73049    0.60177    0.01989    1.000
    Si3819   Si       0.66657    0.63713    0.11680    1.000
    Si3820   Si       0.65363    0.60789    0.99736    1.000
    Si3821   Si       0.56369    0.59732    0.14897    1.000
    N3822    N        0.59535    0.59849    0.21939    1.000
    Si3823   Si       0.59200    0.63843    0.20482    1.000
    N3824    N        0.56244    0.63471    0.17101    1.000
    N3825    N        0.49821    0.60272    0.13543    1.000
    N3826    N        0.67973    0.63037    0.15782    1.000
    Si3827   Si       0.54674    0.62263    0.30190    1.000
    N3828    N        0.54161    0.63528    0.34211    1.000
    N3829    N        0.58959    0.60876    0.29641    1.000
    Si3830   Si       0.61454    0.60034    0.32987    1.000
    Si3831   Si       0.69130    0.63405    0.33859    1.000
    N3832    N        0.71483    0.62397    0.30173    1.000
    N3833    N        0.65452    0.61889    0.32451    1.000
    Si3834   Si       0.58223    0.61057    0.48464    1.000
    Si3835   Si       0.60103    0.61922    0.40929    1.000
    Si3836   Si       0.53095    0.63628    0.38314    1.000
    N3837    N        0.56996    0.64985    0.40063    1.000
    N3838    N        0.57989    0.59980    0.44303    1.000
    N3839    N        0.60766    0.59975    0.37253    1.000
    Si3840   Si       0.68131    0.61463    0.41311    1.000
    N3841    N        0.64132    0.62913    0.42293    1.000
    N3842    N        0.61324    0.63842    0.48725    1.000
    N3843    N        0.70682    0.61397    0.44833    1.000
    N3844    N        0.70227    0.63479    0.38300    1.000
    Si3845   Si       0.71477    0.65406    0.46481    1.000
    N3846    N        0.50567    0.62226    0.60152    1.000
    N3847    N        0.60028    0.65534    0.55442    1.000
    N3848    N        0.54307    0.62995    0.49314    1.000
    Si3849   Si       0.51237    0.60080    0.49291    1.000
    Si3850   Si       0.70003    0.62427    0.58157    1.000
    Si3851   Si       0.62904    0.64103    0.58458    1.000
    N3852    N        0.66571    0.64132    0.56331    1.000
    N3853    N        0.62805    0.59968    0.60157    1.000
    N3854    N        0.59593    0.64002    0.67050    1.000
    N3855    N        0.54800    0.61412    0.72074    1.000
    Si3856   Si       0.55474    0.62124    0.67811    1.000
    Si3857   Si       0.54023    0.65219    0.73989    1.000
    Si3858   Si       0.63214    0.61881    0.68101    1.000
    N3859    N        0.73705    0.64828    0.67722    1.000
    N3860    N        0.63074    0.61076    0.72327    1.000
    N3861    N        0.66582    0.64541    0.68301    1.000
    Si3862   Si       0.69905    0.64589    0.65374    1.000
    N3863    N        0.68916    0.61771    0.62230    1.000
    Si3864   Si       0.66819    0.64115    0.72575    1.000
    N3865    N        0.70681    0.62611    0.74170    1.000
    Si3866   Si       0.50776    0.61676    0.79624    1.000
    N3867    N        0.50974    0.61643    0.83778    1.000
    N3868    N        0.60342    0.64017    0.85599    1.000
    Si3869   Si       0.60809    0.60936    0.82775    1.000
    Si3870   Si       0.52190    0.64508    0.86651    1.000
    N3871    N        0.60711    0.62268    0.78423    1.000
    N3872    N        0.52999    0.65205    0.78296    1.000
    Si3873   Si       0.72855    0.60068    0.85112    1.000
    N3874    N        0.70082    0.63275    0.86342    1.000
    Si3875   Si       0.72593    0.60042    0.76992    1.000
    N3876    N        0.64795    0.59682    0.83914    1.000
    Si3877   Si       0.54459    0.63522    0.93811    1.000
    N3878    N        0.52564    0.61828    0.90375    1.000
    N3879    N        0.55539    0.61324    0.97618    1.000
    Si3880   Si       0.60772    0.62661    0.89891    1.000
    Si3881   Si       0.69059    0.65086    0.91384    1.000
    Si3882   Si       0.66608    0.60746    0.87602    1.000
    N3883    N        0.65560    0.64907    0.98308    1.000
    N3884    N        0.71204    0.61448    0.92445    1.000
    N3885    N        0.65080    0.63333    0.90523    1.000
    N3886    N        0.73398    0.62824    0.98566    1.000
    Si3887   Si       0.50717    0.69768    0.09626    1.000
    Si3888   Si       0.57789    0.67302    0.02947    1.000
    N3889    N        0.54022    0.67382    0.00855    1.000
    N3890    N        0.60206    0.69979    0.05479    1.000
    N3891    N        0.57294    0.67190    0.11102    1.000
    Si3892   Si       0.57526    0.70969    0.08836    1.000
    N3893    N        0.53750    0.71064    0.06741    1.000
    N3894    N        0.71484    0.68108    0.02059    1.000
    Si3895   Si       0.70911    0.69043    0.09799    1.000
    N3896    N        0.67059    0.68124    0.11584    1.000
    N3897    N        0.51016    0.67092    0.13130    1.000
    N3898    N        0.50797    0.69534    0.22146    1.000
    N3899    N        0.56520    0.69923    0.18121    1.000
    Si3900   Si       0.55041    0.67233    0.14984    1.000
    Si3901   Si       0.60894    0.70338    0.17994    1.000
    N3902    N        0.60385    0.65944    0.24285    1.000
    Si3903   Si       0.72228    0.65956    0.22747    1.000
    N3904    N        0.62301    0.66032    0.18353    1.000
    N3905    N        0.67929    0.65971    0.22022    1.000
    N3906    N        0.67977    0.70977    0.17543    1.000
    N3907    N        0.73119    0.70718    0.13080    1.000
    Si3908   Si       0.64266    0.67904    0.23905    1.000
    Si3909   Si       0.66635    0.66577    0.17845    1.000
    N3910    N        0.58987    0.68318    0.30883    1.000
    Si3911   Si       0.57374    0.67620    0.26937    1.000
    Si3912   Si       0.49925    0.67245    0.25786    1.000
    N3913    N        0.53558    0.65651    0.27756    1.000
    N3914    N        0.53345    0.71139    0.37698    1.000
    N3915    N        0.68322    0.67752    0.33894    1.000
    N3916    N        0.66299    0.69270    0.27395    1.000
    N3917    N        0.73221    0.68848    0.25737    1.000
    Si3918   Si       0.66719    0.70491    0.31361    1.000
    N3919    N        0.50168    0.68265    0.48462    1.000
    Si3920   Si       0.56742    0.69360    0.39810    1.000
    Si3921   Si       0.49327    0.70193    0.39383    1.000
    N3922    N        0.60155    0.70660    0.37675    1.000
    N3923    N        0.49544    0.65732    0.39324    1.000
    Si3924   Si       0.59276    0.71509    0.46284    1.000
    N3925    N        0.57927    0.69149    0.49580    1.000
    Si3926   Si       0.64024    0.65726    0.45754    1.000
    Si3927   Si       0.70293    0.67881    0.37839    1.000
    N3928    N        0.67621    0.66490    0.48038    1.000
    N3929    N        0.72195    0.68744    0.43666    1.000
    N3930    N        0.67365    0.70263    0.39786    1.000
    N3931    N        0.62617    0.69642    0.44261    1.000
    Si3932   Si       0.57064    0.68085    0.57089    1.000
    N3933    N        0.53513    0.68330    0.54556    1.000
    Si3934   Si       0.54049    0.67293    0.50266    1.000
    Si3935   Si       0.49626    0.69252    0.56272    1.000
    N3936    N        0.49561    0.69034    0.60693    1.000
    Si3937   Si       0.61246    0.66913    0.51832    1.000
    N3938    N        0.56216    0.66209    0.60754    1.000
    N3939    N        0.63616    0.70418    0.51865    1.000
    Si3940   Si       0.68997    0.67771    0.55612    1.000
    N3941    N        0.70814    0.70693    0.52903    1.000
    N3942    N        0.67392    0.70987    0.58077    1.000
    N3943    N        0.72781    0.65618    0.56720    1.000
    Si3944   Si       0.67504    0.70684    0.49788    1.000
    N3945    N        0.63031    0.66968    0.61804    1.000
    Si3946   Si       0.66196    0.70057    0.61990    1.000
    N3947    N        0.52990    0.65470    0.66332    1.000
    Si3948   Si       0.52109    0.65680    0.61959    1.000
    N3949    N        0.50130    0.66415    0.72494    1.000
    Si3950   Si       0.50107    0.67863    0.68375    1.000
    Si3951   Si       0.58982    0.67254    0.63994    1.000
    N3952    N        0.57553    0.71237    0.65098    1.000
    N3953    N        0.57405    0.67774    0.74342    1.000
    Si3954   Si       0.73537    0.70641    0.62625    1.000
    N3955    N        0.69932    0.68731    0.63816    1.000
    Si3956   Si       0.73489    0.65701    0.72011    1.000
    Si3957   Si       0.66791    0.70914    0.73735    1.000
    N3958    N        0.70607    0.68851    0.72209    1.000
    Si3959   Si       0.53049    0.68741    0.80684    1.000
    N3960    N        0.54825    0.67290    0.84402    1.000
    Si3961   Si       0.59044    0.68090    0.84509    1.000
    N3962    N        0.60558    0.68764    0.80382    1.000
    Si3963   Si       0.60892    0.66321    0.76745    1.000
    Si3964   Si       0.48895    0.71224    0.86845    1.000
    N3965    N        0.49573    0.71116    0.82396    1.000
    Si3966   Si       0.69428    0.67666    0.85137    1.000
    N3967    N        0.65573    0.69655    0.84478    1.000
    N3968    N        0.72244    0.69549    0.82449    1.000
    N3969    N        0.64413    0.67297    0.74298    1.000
    N3970    N        0.58025    0.65431    0.91866    1.000
    N3971    N        0.51280    0.66079    0.95162    1.000
    N3972    N        0.49579    0.67304    0.88514    1.000
    Si3973   Si       0.55605    0.70661    0.97904    1.000
    Si3974   Si       0.58753    0.69713    0.91725    1.000
    N3975    N        0.59623    0.71077    0.87609    1.000
    N3976    N        0.59773    0.69228    0.99044    1.000
    Si3977   Si       0.50248    0.65693    0.99442    1.000
    Si3978   Si       0.69905    0.65742    0.98958    1.000
    N3979    N        0.69242    0.69122    0.89246    1.000
    Si3980   Si       0.64945    0.70647    0.88895    1.000
    N3981    N        0.63183    0.69543    0.92837    1.000
    N3982    N        0.70461    0.67455    0.95143    1.000
    Si3983   Si       0.63581    0.68496    0.97143    1.000
    Si3984   Si       0.71227    0.71026    0.92814    1.000
    Si3985   Si       0.52237    0.74064    0.03995    1.000
    N3986    N        0.54848    0.74108    0.00231    1.000
    N3987    N        0.56848    0.74533    0.11155    1.000
    N3988    N        0.60771    0.76467    0.02990    1.000
    N3989    N        0.49821    0.73635    0.11410    1.000
    Si3990   Si       0.52946    0.76346    0.12059    1.000
    Si3991   Si       0.61590    0.72332    0.01982    1.000
    N3992    N        0.69694    0.72288    0.07018    1.000
    Si3993   Si       0.68776    0.76313    0.08284    1.000
    Si3994   Si       0.71490    0.72301    0.03066    1.000
    N3995    N        0.70869    0.75915    0.00920    1.000
    N3996    N        0.65300    0.71983    0.99666    1.000
    N3997    N        0.54667    0.76219    0.22090    1.000
    Si3998   Si       0.60410    0.76357    0.13037    1.000
    Si3999   Si       0.54430    0.71622    0.21669    1.000
    Si4000   Si       0.66145    0.71854    0.13496    1.000
    N4001    N        0.68967    0.74881    0.24046    1.000
    N4002    N        0.72763    0.75788    0.17911    1.000
    N4003    N        0.67688    0.75646    0.12350    1.000
    N4004    N        0.61964    0.72370    0.14417    1.000
    N4005    N        0.63162    0.71726    0.21699    1.000
    Si4006   Si       0.66604    0.74032    0.20489    1.000
    Si4007   Si       0.72437    0.71345    0.17233    1.000
    N4008    N        0.57092    0.74990    0.33291    1.000
    Si4009   Si       0.53690    0.75073    0.35820    1.000
    Si4010   Si       0.56078    0.75699    0.26180    1.000
    N4011    N        0.56395    0.71386    0.25584    1.000
    N4012    N        0.49996    0.76907    0.34654    1.000
    Si4013   Si       0.59790    0.71617    0.33306    1.000
    N4014    N        0.52367    0.77057    0.27835    1.000
    N4015    N        0.63769    0.72999    0.32858    1.000
    N4016    N        0.70069    0.73215    0.30465    1.000
    Si4017   Si       0.64742    0.76238    0.35490    1.000
    Si4018   Si       0.69929    0.71630    0.26477    1.000
    Si4019   Si       0.71540    0.76950    0.32071    1.000
    N4020    N        0.60458    0.75430    0.47752    1.000
    Si4021   Si       0.53520    0.75079    0.42737    1.000
    N4022    N        0.49576    0.73221    0.42550    1.000
    N4023    N        0.56089    0.71530    0.43369    1.000
    N4024    N        0.64243    0.75920    0.39791    1.000
    N4025    N        0.72054    0.75909    0.41462    1.000
    N4026    N        0.68256    0.73297    0.46692    1.000
    Si4027   Si       0.63285    0.71491    0.40257    1.000
    Si4028   Si       0.69766    0.72251    0.42845    1.000
    Si4029   Si       0.56791    0.75711    0.57058    1.000
    N4030    N        0.58365    0.71923    0.58357    1.000
    N4031    N        0.59680    0.77070    0.54094    1.000
    N4032    N        0.52648    0.77198    0.57973    1.000
    Si4033   Si       0.59625    0.73544    0.62169    1.000
    N4034    N        0.57898    0.77382    0.61014    1.000
    N4035    N        0.73571    0.73563    0.59271    1.000
    Si4036   Si       0.62164    0.74462    0.51774    1.000
    Si4037   Si       0.70096    0.73957    0.56516    1.000
    N4038    N        0.65866    0.76655    0.51676    1.000
    Si4039   Si       0.49254    0.76278    0.67650    1.000
    N4040    N        0.56459    0.73675    0.71237    1.000
    Si4041   Si       0.54705    0.73390    0.67300    1.000
    N4042    N        0.50619    0.72112    0.67564    1.000
    Si4043   Si       0.59485    0.76854    0.71784    1.000
    N4044    N        0.63753    0.73446    0.63401    1.000
    N4045    N        0.72467    0.75705    0.70711    1.000
    Si4046   Si       0.70938    0.71825    0.68968    1.000
    Si4047   Si       0.65342    0.75552    0.66567    1.000
    N4048    N        0.66724    0.72799    0.69662    1.000
    Si4049   Si       0.51454    0.74740    0.80408    1.000
    N4050    N        0.54672    0.72277    0.78763    1.000
    N4051    N        0.60776    0.74570    0.75359    1.000
    Si4052   Si       0.57190    0.72041    0.75210    1.000
    Si4053   Si       0.60751    0.75404    0.86440    1.000
    N4054    N        0.49106    0.76178    0.77042    1.000
    Si4055   Si       0.70959    0.72964    0.80209    1.000
    N4056    N        0.62550    0.75162    0.82375    1.000
    N4057    N        0.69879    0.76257    0.82718    1.000
    N4058    N        0.67235    0.72090    0.77903    1.000
    Si4059   Si       0.64060    0.71219    0.80714    1.000
    N4060    N        0.50900    0.74185    0.89115    1.000
    Si4061   Si       0.51707    0.74083    0.93347    1.000
    N4062    N        0.55457    0.71832    0.93776    1.000
    N4063    N        0.64696    0.75096    0.88501    1.000
    N4064    N        0.68639    0.74402    0.93900    1.000
    Si4065   Si       0.67707    0.75077    0.97949    1.000
    Si4066   Si       0.51771    0.81108    0.06694    1.000
    N4067    N        0.51037    0.80190    0.10856    1.000
    N4068    N        0.53966    0.77929    0.04866    1.000
    Si4069   Si       0.56854    0.77566    0.01714    1.000
    N4070    N        0.57078    0.80817    0.98827    1.000
    N4071    N        0.61912    0.78741    0.09709    1.000
    Si4072   Si       0.69561    0.80297    0.01844    1.000
    Si4073   Si       0.62805    0.79632    0.05649    1.000
    N4074    N        0.67153    0.79061    0.05428    1.000
    N4075    N        0.72888    0.77595    0.08748    1.000
    N4076    N        0.73720    0.81829    0.01642    1.000
    N4077    N        0.49187    0.81936    0.23750    1.000
    N4078    N        0.52312    0.77509    0.16226    1.000
    Si4079   Si       0.55808    0.78815    0.18692    1.000
    N4080    N        0.59598    0.78673    0.16686    1.000
    Si4081   Si       0.49278    0.80401    0.14695    1.000
    Si4082   Si       0.50547    0.77700    0.23618    1.000
    N4083    N        0.55142    0.82793    0.19974    1.000
    N4084    N        0.61303    0.82584    0.22092    1.000
    Si4085   Si       0.62887    0.80941    0.18370    1.000
    N4086    N        0.72261    0.80914    0.22405    1.000
    N4087    N        0.71146    0.81482    0.14516    1.000
    Si4088   Si       0.69507    0.77749    0.15806    1.000
    N4089    N        0.66070    0.77717    0.18467    1.000
    N4090    N        0.55061    0.81302    0.32287    1.000
    Si4091   Si       0.51077    0.79365    0.31224    1.000
    N4092    N        0.59447    0.78408    0.27673    1.000
    Si4093   Si       0.58535    0.78796    0.31817    1.000
    Si4094   Si       0.62096    0.81450    0.26190    1.000
    N4095    N        0.72883    0.78772    0.28548    1.000
    N4096    N        0.62383    0.79493    0.33835    1.000
    N4097    N        0.68536    0.78328    0.35015    1.000
    N4098    N        0.66514    0.81420    0.26623    1.000
    Si4099   Si       0.65834    0.82005    0.35022    1.000
    Si4100   Si       0.69791    0.79056    0.25208    1.000
    Si4101   Si       0.51612    0.81479    0.45935    1.000
    N4102    N        0.59725    0.80157    0.42980    1.000
    Si4103   Si       0.58280    0.78881    0.46666    1.000
    Si4104   Si       0.56332    0.81740    0.40491    1.000
    N4105    N        0.53965    0.77955    0.45997    1.000
    N4106    N        0.54731    0.77605    0.39450    1.000
    N4107    N        0.58517    0.82254    0.49266    1.000
    N4108    N        0.73686    0.77409    0.48178    1.000
    N4109    N        0.64824    0.82966    0.39183    1.000
    Si4110   Si       0.68973    0.77419    0.48255    1.000
    Si4111   Si       0.63961    0.79630    0.42066    1.000
    Si4112   Si       0.71859    0.78362    0.38024    1.000
    N4113    N        0.67049    0.80333    0.45349    1.000
    N4114    N        0.72331    0.82484    0.39060    1.000
    Si4115   Si       0.59940    0.81325    0.53279    1.000
    Si4116   Si       0.53895    0.79021    0.61883    1.000
    N4117    N        0.53627    0.83322    0.61385    1.000
    N4118    N        0.68682    0.77960    0.57363    1.000
    Si4119   Si       0.67096    0.79935    0.54094    1.000
    N4120    N        0.70160    0.81455    0.51092    1.000
    Si4121   Si       0.70044    0.80060    0.60821    1.000
    N4122    N        0.63853    0.82570    0.54098    1.000
    N4123    N        0.50040    0.79025    0.70828    1.000
    N4124    N        0.57046    0.80357    0.72318    1.000
    Si4125   Si       0.53822    0.80594    0.69394    1.000
    N4126    N        0.53490    0.77675    0.65963    1.000
    N4127    N        0.68135    0.78291    0.64526    1.000
    N4128    N        0.62179    0.77638    0.68745    1.000
    Si4129   Si       0.67378    0.82492    0.65559    1.000
    N4130    N        0.70558    0.80904    0.75226    1.000
    N4131    N        0.57485    0.79519    0.79282    1.000
    Si4132   Si       0.55972    0.80477    0.83465    1.000
    Si4133   Si       0.56095    0.82409    0.76203    1.000
    N4134    N        0.59068    0.79537    0.86466    1.000
    Si4135   Si       0.49132    0.79960    0.74857    1.000
    N4136    N        0.52799    0.77473    0.83437    1.000
    Si4137   Si       0.50835    0.78206    0.87263    1.000
    Si4138   Si       0.61182    0.77361    0.78755    1.000
    N4139    N        0.51834    0.83007    0.76052    1.000
    Si4140   Si       0.65804    0.78152    0.82749    1.000
    N4141    N        0.64809    0.79935    0.78868    1.000
    N4142    N        0.65392    0.81851    0.85176    1.000
    Si4143   Si       0.67068    0.82839    0.76665    1.000
    Si4144   Si       0.73134    0.77561    0.74498    1.000
    Si4145   Si       0.72803    0.77579    0.85441    1.000
    N4146    N        0.52948    0.81913    0.88243    1.000
    N4147    N        0.51039    0.78679    0.93918    1.000
    Si4148   Si       0.52354    0.82470    0.92681    1.000
    Si4149   Si       0.67240    0.77357    0.91017    1.000
    Si4150   Si       0.62315    0.82211    0.88378    1.000
    Si4151   Si       0.65924    0.82545    0.95733    1.000
    N4152    N        0.71075    0.78759    0.89262    1.000
    N4153    N        0.66341    0.79155    0.98315    1.000
    N4154    N        0.64472    0.80858    0.91867    1.000
    Si4155   Si       0.72900    0.81229    0.92496    1.000
    Si4156   Si       0.58221    0.86279    0.04791    1.000
    N4157    N        0.54419    0.84534    0.06567    1.000
    N4158    N        0.57477    0.87767    0.00679    1.000
    Si4159   Si       0.54070    0.87936    0.09238    1.000
    N4160    N        0.49156    0.86787    0.10257    1.000
    N4161    N        0.58389    0.88968    0.08282    1.000
    N4162    N        0.61746    0.83545    0.04052    1.000
    Si4163   Si       0.64010    0.86005    0.01307    1.000
    N4164    N        0.68051    0.84684    0.00725    1.000
    Si4165   Si       0.50937    0.84088    0.20560    1.000
    Si4166   Si       0.58040    0.85417    0.21470    1.000
    Si4167   Si       0.49799    0.87728    0.14555    1.000
    N4168    N        0.50605    0.88123    0.22117    1.000
    N4169    N        0.59220    0.88369    0.18516    1.000
    N4170    N        0.49124    0.84188    0.16650    1.000
    N4171    N        0.53935    0.88963    0.13592    1.000
    N4172    N        0.70222    0.88050    0.12952    1.000
    Si4173   Si       0.63260    0.88450    0.17253    1.000
    N4174    N        0.71058    0.86554    0.19534    1.000
    Si4175   Si       0.69305    0.84956    0.15874    1.000
    N4176    N        0.64898    0.84403    0.16690    1.000
    Si4177   Si       0.55263    0.85025    0.34343    1.000
    N4178    N        0.51027    0.85885    0.35661    1.000
    N4179    N        0.50018    0.87068    0.28882    1.000
    Si4180   Si       0.59033    0.88437    0.28406    1.000
    N4181    N        0.56645    0.87376    0.24945    1.000
    N4182    N        0.56287    0.88516    0.31897    1.000
    Si4183   Si       0.52620    0.88849    0.25872    1.000
    N4184    N        0.62169    0.85525    0.28226    1.000
    N4185    N        0.66988    0.85105    0.32544    1.000
    Si4186   Si       0.66416    0.85458    0.28290    1.000
    N4187    N        0.68513    0.88366    0.25728    1.000
    N4188    N        0.58100    0.84581    0.37552    1.000
    Si4189   Si       0.49443    0.84861    0.39608    1.000
    N4190    N        0.52165    0.84111    0.49367    1.000
    N4191    N        0.60779    0.87093    0.43462    1.000
    N4192    N        0.52505    0.83433    0.42165    1.000
    N4193    N        0.72621    0.85368    0.45918    1.000
    Si4194   Si       0.68982    0.83732    0.47313    1.000
    Si4195   Si       0.61915    0.86204    0.39422    1.000
    N4196    N        0.66096    0.86556    0.48537    1.000
    Si4197   Si       0.62922    0.89046    0.46536    1.000
    N4198    N        0.50670    0.85867    0.55498    1.000
    Si4199   Si       0.54311    0.85229    0.57596    1.000
    Si4200   Si       0.55957    0.85771    0.50732    1.000
    N4201    N        0.57175    0.84201    0.54800    1.000
    N4202    N        0.60681    0.88391    0.50593    1.000
    N4203    N        0.61633    0.88043    0.61563    1.000
    Si4204   Si       0.64292    0.86510    0.52583    1.000
    Si4205   Si       0.65804    0.87461    0.60184    1.000
    N4206    N        0.67441    0.83615    0.61402    1.000
    N4207    N        0.48756    0.88748    0.72389    1.000
    N4208    N        0.53756    0.84763    0.68423    1.000
    Si4209   Si       0.53221    0.86385    0.64338    1.000
    N4210    N        0.59400    0.88146    0.70465    1.000
    Si4211   Si       0.55353    0.88801    0.69349    1.000
    N4212    N        0.49993    0.88880    0.65250    1.000
    Si4213   Si       0.61270    0.88327    0.66215    1.000
    N4214    N        0.56658    0.88924    0.64874    1.000
    Si4215   Si       0.61245    0.87732    0.74366    1.000
    N4216    N        0.70341    0.83171    0.68740    1.000
    Si4217   Si       0.73088    0.83565    0.72223    1.000
    N4218    N        0.71784    0.87237    0.74137    1.000
    N4219    N        0.64560    0.85520    0.67176    1.000
    N4220    N        0.64909    0.85390    0.73899    1.000
    Si4221   Si       0.67535    0.86205    0.70574    1.000
    N4222    N        0.58459    0.85804    0.77033    1.000
    N4223    N        0.54662    0.84616    0.82663    1.000
    Si4224   Si       0.56111    0.87832    0.80056    1.000
    Si4225   Si       0.49753    0.87065    0.76228    1.000
    Si4226   Si       0.52711    0.85787    0.86363    1.000
    N4227    N        0.68489    0.85504    0.79530    1.000
    Si4228   Si       0.67117    0.85424    0.83641    1.000
    N4229    N        0.71230    0.86282    0.85190    1.000
    Si4230   Si       0.71968    0.87859    0.78427    1.000
    N4231    N        0.64293    0.88862    0.83915    1.000
    N4232    N        0.55589    0.84953    0.93940    1.000
    Si4233   Si       0.57327    0.87913    0.91563    1.000
    Si4234   Si       0.58178    0.84831    0.97573    1.000
    N4235    N        0.60909    0.86351    0.89470    1.000
    Si4236   Si       0.71634    0.86040    0.97934    1.000
    N4237    N        0.62620    0.85187    0.97160    1.000
    N4238    N        0.70043    0.83535    0.94753    1.000
    N4239    N        0.52168    0.91624    0.07419    1.000
    Si4240   Si       0.60494    0.91756    0.10796    1.000
    N4241    N        0.53600    0.93590    0.00587    1.000
    N4242    N        0.60096    0.94844    0.99741    1.000
    Si4243   Si       0.72508    0.94450    0.07268    1.000
    N4244    N        0.68494    0.92855    0.08090    1.000
    Si4245   Si       0.65110    0.93164    0.05522    1.000
    N4246    N        0.64003    0.89950    0.02869    1.000
    N4247    N        0.62303    0.94717    0.08303    1.000
    Si4248   Si       0.63877    0.93166    0.99655    1.000
    Si4249   Si       0.56499    0.91113    0.16404    1.000
    N4250    N        0.58148    0.94037    0.13557    1.000
    N4251    N        0.54051    0.93110    0.19333    1.000
    Si4252   Si       0.49935    0.91820    0.19921    1.000
    N4253    N        0.65572    0.91237    0.19708    1.000
    Si4254   Si       0.67745    0.91364    0.11979    1.000
    N4255    N        0.71912    0.93064    0.21485    1.000
    Si4256   Si       0.69074    0.89686    0.21576    1.000
    N4257    N        0.63808    0.90048    0.13153    1.000
    N4258    N        0.68976    0.94451    0.14664    1.000
    Si4259   Si       0.53785    0.92071    0.31967    1.000
    N4260    N        0.53535    0.92725    0.27273    1.000
    N4261    N        0.49842    0.92125    0.33662    1.000
    N4262    N        0.60769    0.92370    0.27820    1.000
    N4263    N        0.66935    0.91628    0.31319    1.000
    Si4264   Si       0.70005    0.91810    0.28101    1.000
    Si4265   Si       0.64268    0.94149    0.29259    1.000
    Si4266   Si       0.67403    0.88742    0.34530    1.000
    N4267    N        0.71411    0.89096    0.36297    1.000
    N4268    N        0.58024    0.93941    0.47820    1.000
    Si4269   Si       0.53804    0.93225    0.47886    1.000
    N4270    N        0.52321    0.93439    0.43898    1.000
    Si4271   Si       0.65125    0.93045    0.40049    1.000
    N4272    N        0.69069    0.94668    0.39487    1.000
    Si4273   Si       0.72581    0.93078    0.37354    1.000
    N4274    N        0.64278    0.89642    0.37585    1.000
    N4275    N        0.64883    0.92328    0.44443    1.000
    Si4276   Si       0.58365    0.91917    0.51632    1.000
    Si4277   Si       0.52030    0.90092    0.54845    1.000
    Si4278   Si       0.58154    0.90414    0.60977    1.000
    N4279    N        0.54471    0.90084    0.51044    1.000
    N4280    N        0.60455    0.94231    0.54521    1.000
    N4281    N        0.54849    0.89561    0.58241    1.000
    N4282    N        0.59361    0.94350    0.60927    1.000
    N4283    N        0.48874    0.93035    0.54484    1.000
    Si4284   Si       0.64818    0.93181    0.54654    1.000
    Si4285   Si       0.72406    0.90798    0.61045    1.000
    N4286    N        0.72556    0.93506    0.57686    1.000
    N4287    N        0.66687    0.93746    0.50765    1.000
    Si4288   Si       0.70934    0.94458    0.50397    1.000
    N4289    N        0.72960    0.90554    0.51210    1.000
    N4290    N        0.65376    0.89035    0.55996    1.000
    Si4291   Si       0.50027    0.92914    0.72051    1.000
    N4292    N        0.53928    0.92670    0.69759    1.000
    Si4293   Si       0.49151    0.93247    0.64754    1.000
    N4294    N        0.68494    0.90260    0.62298    1.000
    N4295    N        0.68938    0.90089    0.69640    1.000
    Si4296   Si       0.67359    0.92251    0.66286    1.000
    N4297    N        0.63072    0.92519    0.66333    1.000
    Si4298   Si       0.71231    0.91672    0.73327    1.000
    N4299    N        0.58283    0.90723    0.82184    1.000
    N4300    N        0.51724    0.92893    0.83277    1.000
    Si4301   Si       0.55422    0.92425    0.85583    1.000
    Si4302   Si       0.52577    0.93811    0.79009    1.000
    N4303    N        0.52956    0.89738    0.77546    1.000
    Si4304   Si       0.62523    0.91780    0.80952    1.000
    N4305    N        0.71207    0.93425    0.84923    1.000
    N4306    N        0.66566    0.93585    0.79738    1.000
    N4307    N        0.62199    0.91362    0.76421    1.000
    Si4308   Si       0.70586    0.94203    0.80755    1.000
    N4309    N        0.72659    0.91967    0.77775    1.000
    Si4310   Si       0.65001    0.94710    0.75845    1.000
    N4311    N        0.50742    0.91212    0.94438    1.000
    N4312    N        0.58052    0.91009    0.94631    1.000
    Si4313   Si       0.51877    0.94167    0.91343    1.000
    Si4314   Si       0.57193    0.91771    0.98859    1.000
    Si4315   Si       0.50500    0.94344    0.97632    1.000
    Si4316   Si       0.60981    0.93880    0.93180    1.000
    N4317    N        0.54621    0.89080    0.88429    1.000
    Si4318   Si       0.71340    0.89887    0.87724    1.000
    N4319    N        0.64646    0.93102    0.95369    1.000
    N4320    N        0.61705    0.93395    0.88860    1.000
    Si4321   Si       0.68292    0.92098    0.93429    1.000
    N4322    N        0.70462    0.89986    0.96508    1.000
    Si4323   Si       0.63470    0.89519    0.88204    1.000
    N4324    N        0.67354    0.89705    0.89975    1.000
    N4325    N        0.56669    0.97088    0.05375    1.000
    Si4326   Si       0.59264    0.98364    0.02122    1.000
    Si4327   Si       0.59746    0.98284    0.08143    1.000
    N4328    N        0.49593    0.97428    0.05192    1.000
    Si4329   Si       0.53035    0.94778    0.04730    1.000
    N4330    N        0.59780    0.00627    0.11597    1.000
    N4331    N        0.61652    0.00627    0.04883    1.000
    N4332    N        0.72930    0.96580    0.03530    1.000
    Si4333   Si       0.69450    0.98572    0.01893    1.000
    N4334    N        0.66301    0.95724    0.02048    1.000
    N4335    N        0.73661    0.97514    0.10042    1.000
    Si4336   Si       0.59474    0.98009    0.14958    1.000
    N4337    N        0.56654    0.99697    0.17979    1.000
    N4338    N        0.51288    0.99234    0.21082    1.000
    Si4339   Si       0.54960    0.96863    0.20961    1.000
    N4340    N        0.68415    0.98644    0.20352    1.000
    Si4341   Si       0.64444    0.00694    0.19927    1.000
    Si4342   Si       0.66539    0.95092    0.17997    1.000
    N4343    N        0.62895    0.97577    0.17553    1.000
    N4344    N        0.72631    0.00312    0.15531    1.000
    Si4345   Si       0.70722    0.96779    0.23381    1.000
    Si4346   Si       0.72939    0.96118    0.14060    1.000
    Si4347   Si       0.54899    0.98890    0.34721    1.000
    N4348    N        0.56141    0.95648    0.32068    1.000
    Si4349   Si       0.57191    0.94919    0.27864    1.000
    N4350    N        0.56973    0.97706    0.24627    1.000
    Si4351   Si       0.65804    0.99791    0.26819    1.000
    N4352    N        0.67960    0.95735    0.26433    1.000
    N4353    N        0.63527    0.98253    0.30335    1.000
    N4354    N        0.69859    0.00551    0.35551    1.000
    N4355    N        0.52234    0.97367    0.37701    1.000
    Si4356   Si       0.53255    0.97076    0.41837    1.000
    Si4357   Si       0.59447    0.97710    0.46299    1.000
    N4358    N        0.57469    0.97853    0.42292    1.000
    Si4359   Si       0.60282    0.99829    0.39597    1.000
    N4360    N        0.51078    0.00564    0.44019    1.000
    N4361    N        0.57178    0.00612    0.48490    1.000
    N4362    N        0.51755    0.96475    0.50040    1.000
    N4363    N        0.63595    0.97071    0.38677    1.000
    N4364    N        0.70855    0.96025    0.46442    1.000
    N4365    N        0.63530    0.98884    0.46428    1.000
    Si4366   Si       0.67619    0.98648    0.38701    1.000
    Si4367   Si       0.66505    0.95666    0.46613    1.000
    Si4368   Si       0.73847    0.96768    0.43226    1.000
    Si4369   Si       0.58731    0.96763    0.57475    1.000
    N4370    N        0.54489    0.97162    0.56705    1.000
    Si4371   Si       0.51174    0.98139    0.54138    1.000
    Si4372   Si       0.52512    0.98633    0.60334    1.000
    N4373    N        0.60324    0.00532    0.58567    1.000
    N4374    N        0.71255    0.97879    0.53102    1.000
    Si4375   Si       0.70537    0.97121    0.57261    1.000
    N4376    N        0.66171    0.96293    0.57073    1.000
    Si4377   Si       0.65010    0.99891    0.59258    1.000
    N4378    N        0.70013    0.00080    0.60561    1.000
    Si4379   Si       0.54594    0.96380    0.67529    1.000
    N4380    N        0.58572    0.98181    0.66690    1.000
    N4381    N        0.52734    0.99439    0.69848    1.000
    N4382    N        0.52312    0.95918    0.63705    1.000
    N4383    N        0.70082    0.95421    0.65824    1.000
    Si4384   Si       0.61487    0.95836    0.64284    1.000
    N4385    N        0.64572    0.98861    0.63413    1.000
    Si4386   Si       0.68735    0.99149    0.64552    1.000
    N4387    N        0.68786    0.95354    0.73639    1.000
    N4388    N        0.55616    0.96873    0.79460    1.000
    Si4389   Si       0.59669    0.98315    0.79316    1.000
    N4390    N        0.49743    0.99617    0.80501    1.000
    N4391    N        0.59624    0.00592    0.86506    1.000
    N4392    N        0.50539    0.95482    0.75389    1.000
    Si4393   Si       0.50185    0.99602    0.75886    1.000
    N4394    N        0.61674    0.96016    0.82501    1.000
    Si4395   Si       0.71020    0.98901    0.75401    1.000
    N4396    N        0.62401    0.98144    0.76029    1.000
    N4397    N        0.71015    0.98392    0.79736    1.000
    Si4398   Si       0.62436    0.97201    0.86579    1.000
    N4399    N        0.71873    0.00776    0.86099    1.000
    Si4400   Si       0.57233    0.99398    0.89884    1.000
    N4401    N        0.59834    0.98142    0.93071    1.000
    N4402    N        0.51322    0.97277    0.94264    1.000
    N4403    N        0.55104    0.95709    0.88520    1.000
    Si4404   Si       0.70265    0.96757    0.87659    1.000
    N4405    N        0.70841    0.95162    0.91755    1.000
    N4406    N        0.70672    0.99243    0.97645    1.000
    Si4407   Si       0.73237    0.97865    0.94273    1.000
    N4408    N        0.66338    0.98704    0.87869    1.000
    N4409    N        0.75681    0.04778    0.04548    1.000
    Si4410   Si       0.84997    0.03781    0.06022    1.000
    N4411    N        0.84134    0.02172    0.01909    1.000
    N4412    N        0.78173    0.02983    0.10760    1.000
    Si4413   Si       0.76303    0.04324    0.00260    1.000
    Si4414   Si       0.74041    0.01596    0.11582    1.000
    Si4415   Si       0.77945    0.06281    0.07912    1.000
    N4416    N        0.85249    0.00694    0.08963    1.000
    Si4417   Si       0.97750    0.02633    0.01358    1.000
    Si4418   Si       0.98159    0.05046    0.08926    1.000
    Si4419   Si       0.87525    0.04420    0.00293    1.000
    N4420    N        0.96058    0.02833    0.05363    1.000
    N4421    N        0.88619    0.05811    0.04528    1.000
    Si4422   Si       0.82057    0.01568    0.11982    1.000
    N4423    N        0.83919    0.04444    0.14650    1.000
    Si4424   Si       0.85326    0.00883    0.23377    1.000
    Si4425   Si       0.85886    0.01319    0.17061    1.000
    N4426    N        0.81278    0.01747    0.24284    1.000
    N4427    N        0.93962    0.05744    0.22062    1.000
    Si4428   Si       0.94641    0.01817    0.23262    1.000
    N4429    N        0.87035    0.03766    0.20587    1.000
    Si4430   Si       0.93582    0.00864    0.13176    1.000
    N4431    N        0.95187    0.04730    0.12346    1.000
    Si4432   Si       0.80276    0.05043    0.26909    1.000
    N4433    N        0.81732    0.04938    0.30978    1.000
    N4434    N        0.76635    0.02884    0.34450    1.000
    N4435    N        0.76060    0.05043    0.27753    1.000
    Si4436   Si       0.81165    0.02046    0.34771    1.000
    Si4437   Si       0.74921    0.06180    0.31759    1.000
    Si4438   Si       0.95574    0.04751    0.29999    1.000
    N4439    N        0.96363    0.02757    0.33678    1.000
    N4440    N        0.93743    0.01758    0.27481    1.000
    Si4441   Si       0.98392    0.04528    0.36944    1.000
    N4442    N        0.83343    0.04788    0.37473    1.000
    N4443    N        0.78959    0.04911    0.42774    1.000
    N4444    N        0.82955    0.00958    0.49360    1.000
    Si4445   Si       0.78429    0.00737    0.41904    1.000
    Si4446   Si       0.92953    0.00894    0.40037    1.000
    N4447    N        0.96265    0.03785    0.40524    1.000
    Si4448   Si       0.98291    0.05783    0.44200    1.000
    N4449    N        0.88154    0.05040    0.47992    1.000
    Si4450   Si       0.90589    0.04918    0.44491    1.000
    N4451    N        0.89668    0.01576    0.37384    1.000
    Si4452   Si       0.87861    0.05515    0.37433    1.000
    Si4453   Si       0.87212    0.01073    0.49745    1.000
    Si4454   Si       0.80429    0.03715    0.51796    1.000
    N4455    N        0.81892    0.02824    0.55793    1.000
    N4456    N        0.75152    0.02014    0.57063    1.000
    Si4457   Si       0.85843    0.02141    0.57277    1.000
    N4458    N        0.76940    0.01226    0.50919    1.000
    N4459    N        0.87443    0.05849    0.59544    1.000
    Si4460   Si       0.96686    0.02735    0.60572    1.000
    N4461    N        0.88477    0.01575    0.53875    1.000
    Si4462   Si       0.95211    0.04801    0.49843    1.000
    N4463    N        0.95021    0.06482    0.59325    1.000
    Si4464   Si       0.78260    0.01259    0.65246    1.000
    N4465    N        0.81798    0.03078    0.67328    1.000
    N4466    N        0.75528    0.04236    0.63302    1.000
    N4467    N        0.77071    0.06568    0.74536    1.000
    N4468    N        0.96281    0.01451    0.64784    1.000
    Si4469   Si       0.92467    0.01433    0.67209    1.000
    N4470    N        0.92905    0.03385    0.70904    1.000
    Si4471   Si       0.90250    0.02622    0.74249    1.000
    Si4472   Si       0.97157    0.04620    0.71503    1.000
    N4473    N        0.88586    0.02265    0.65596    1.000
    Si4474   Si       0.88511    0.06080    0.63649    1.000
    Si4475   Si       0.84506    0.05156    0.78078    1.000
    Si4476   Si       0.77254    0.02846    0.76781    1.000
    Si4477   Si       0.85325    0.05069    0.85400    1.000
    N4478    N        0.81649    0.02101    0.77074    1.000
    N4479    N        0.75117    0.04141    0.80227    1.000
    N4480    N        0.86700    0.03623    0.81537    1.000
    Si4481   Si       0.91067    0.03250    0.81379    1.000
    N4482    N        0.92839    0.01536    0.84829    1.000
    N4483    N        0.92453    0.01100    0.77858    1.000
    N4484    N        0.89100    0.06169    0.87148    1.000
    N4485    N        0.88623    0.06563    0.75809    1.000
    N4486    N        0.82556    0.01989    0.95047    1.000
    N4487    N        0.76273    0.05840    0.88452    1.000
    N4488    N        0.82818    0.02907    0.88240    1.000
    Si4489   Si       0.74627    0.01886    0.89259    1.000
    Si4490   Si       0.82048    0.06292    0.96101    1.000
    Si4491   Si       0.80501    0.06590    0.88660    1.000
    N4492    N        0.94250    0.04453    0.91773    1.000
    N4493    N        0.95667    0.00927    0.98221    1.000
    Si4494   Si       0.93266    0.03795    0.95884    1.000
    N4495    N        0.89712    0.01663    0.97868    1.000
    Si4496   Si       0.91593    0.03065    0.88629    1.000
    N4497    N        0.75700    0.09796    0.09307    1.000
    Si4498   Si       0.83721    0.11120    0.08084    1.000
    N4499    N        0.82354    0.06922    0.07293    1.000
    N4500    N        0.92079    0.09963    0.10259    1.000
    N4501    N        0.94593    0.10247    0.04161    1.000
    Si4502   Si       0.90886    0.08984    0.06046    1.000
    Si4503   Si       0.95627    0.09680    0.00095    1.000
    Si4504   Si       0.97473    0.12262    0.06826    1.000
    N4505    N        0.87733    0.12265    0.06527    1.000
    N4506    N        0.85123    0.11290    0.12176    1.000
    N4507    N        0.83441    0.10066    0.18275    1.000
    Si4508   Si       0.84038    0.10780    0.22458    1.000
    Si4509   Si       0.85909    0.08006    0.15107    1.000
    N4510    N        0.74756    0.12021    0.20100    1.000
    N4511    N        0.96158    0.11538    0.15616    1.000
    Si4512   Si       0.96890    0.08358    0.23834    1.000
    N4513    N        0.90119    0.07988    0.16255    1.000
    Si4514   Si       0.93669    0.08449    0.14018    1.000
    N4515    N        0.88604    0.10186    0.22910    1.000
    N4516    N        0.95145    0.12221    0.24583    1.000
    Si4517   Si       0.89890    0.06929    0.20438    1.000
    N4518    N        0.75280    0.10016    0.33789    1.000
    Si4519   Si       0.83101    0.08324    0.33808    1.000
    N4520    N        0.81751    0.11599    0.31144    1.000
    N4521    N        0.81195    0.08825    0.25049    1.000
    Si4522   Si       0.90678    0.11046    0.32621    1.000
    N4523    N        0.94020    0.08812    0.30749    1.000
    N4524    N        0.87493    0.08424    0.34207    1.000
    Si4525   Si       0.95273    0.12358    0.28822    1.000
    N4526    N        0.99009    0.08881    0.36658    1.000
    N4527    N        0.80677    0.10404    0.37176    1.000
    Si4528   Si       0.81616    0.07334    0.40338    1.000
    N4529    N        0.76557    0.11203    0.44869    1.000
    N4530    N        0.83395    0.10370    0.42899    1.000
    Si4531   Si       0.76873    0.06998    0.46123    1.000
    N4532    N        0.88978    0.07178    0.41284    1.000
    N4533    N        0.89393    0.11747    0.49159    1.000
    Si4534   Si       0.88009    0.11309    0.42393    1.000
    N4535    N        0.94112    0.07051    0.46095    1.000
    Si4536   Si       0.93151    0.11343    0.46993    1.000
    N4537    N        0.84962    0.08782    0.53566    1.000
    Si4538   Si       0.81266    0.10628    0.52074    1.000
    N4539    N        0.76511    0.11267    0.61390    1.000
    N4540    N        0.83416    0.12141    0.60179    1.000
    N4541    N        0.79388    0.07360    0.49702    1.000
    Si4542   Si       0.86186    0.09843    0.57788    1.000
    Si4543   Si       0.93133    0.09073    0.56517    1.000
    N4544    N        0.97167    0.11041    0.55796    1.000
    Si4545   Si       0.88670    0.07910    0.51370    1.000
    N4546    N        0.89868    0.11999    0.56693    1.000
    N4547    N        0.92590    0.06734    0.52761    1.000
    Si4548   Si       0.75697    0.08424    0.64637    1.000
    N4549    N        0.78813    0.09481    0.67254    1.000
    N4550    N        0.82927    0.08604    0.72234    1.000
    N4551    N        0.85430    0.08449    0.65515    1.000
    Si4552   Si       0.82195    0.07157    0.68270    1.000
    Si4553   Si       0.84668    0.12594    0.64298    1.000
    Si4554   Si       0.86206    0.10139    0.74627    1.000
    N4555    N        0.98775    0.10889    0.62460    1.000
    N4556    N        0.91995    0.08003    0.65419    1.000
    N4557    N        0.98492    0.07660    0.68802    1.000
    Si4558   Si       0.96157    0.09616    0.65674    1.000
    Si4559   Si       0.90794    0.11720    0.67345    1.000
    N4560    N        0.89015    0.11826    0.71249    1.000
    N4561    N        0.82838    0.09081    0.78418    1.000
    N4562    N        0.77191    0.11119    0.79162    1.000
    Si4563   Si       0.80558    0.11409    0.82251    1.000
    N4564    N        0.82337    0.08065    0.84854    1.000
    Si4565   Si       0.79855    0.09700    0.75316    1.000
    N4566    N        0.77569    0.12260    0.85810    1.000
    Si4567   Si       0.73698    0.08481    0.79690    1.000
    Si4568   Si       0.92798    0.08359    0.77114    1.000
    Si4569   Si       0.91788    0.09226    0.85349    1.000
    N4570    N        0.92287    0.07414    0.81419    1.000
    Si4571   Si       0.98570    0.10842    0.84163    1.000
    N4572    N        0.96383    0.06693    0.75558    1.000
    N4573    N        0.95680    0.09514    0.87078    1.000
    Si4574   Si       0.74397    0.09509    0.87189    1.000
    N4575    N        0.78832    0.07369    0.98830    1.000
    N4576    N        0.85765    0.07509    0.97946    1.000
    N4577    N        0.74489    0.11932    0.95840    1.000
    N4578    N        0.81372    0.08488    0.92423    1.000
    Si4579   Si       0.77850    0.11711    0.98563    1.000
    Si4580   Si       0.82942    0.12400    0.92905    1.000
    N4581    N        0.92252    0.07667    0.97847    1.000
    Si4582   Si       0.88809    0.10216    0.96533    1.000
    N4583    N        0.87131    0.11987    0.92865    1.000
    Si4584   Si       0.97338    0.06601    0.89733    1.000
    Si4585   Si       0.80588    0.16404    0.03721    1.000
    N4586    N        0.80843    0.14392    0.07661    1.000
    Si4587   Si       0.77210    0.13735    0.09883    1.000
    N4588    N        0.76979    0.13958    0.02205    1.000
    N4589    N        0.84577    0.16801    0.02424    1.000
    Si4590   Si       0.74576    0.17364    0.04073    1.000
    N4591    N        0.74230    0.16534    0.08418    1.000
    Si4592   Si       0.88421    0.15278    0.03446    1.000
    N4593    N        0.96150    0.15383    0.09516    1.000
    Si4594   Si       0.89043    0.12842    0.10812    1.000
    N4595    N        0.91843    0.17910    0.04667    1.000
    Si4596   Si       0.75435    0.17114    0.23389    1.000
    Si4597   Si       0.75652    0.15029    0.17130    1.000
    N4598    N        0.78578    0.14101    0.14063    1.000
    N4599    N        0.84281    0.16597    0.17142    1.000
    Si4600   Si       0.82540    0.13120    0.15241    1.000
    N4601    N        0.77511    0.17861    0.19657    1.000
    N4602    N        0.83539    0.14735    0.24518    1.000
    Si4603   Si       0.94856    0.15153    0.13921    1.000
    N4604    N        0.90496    0.15545    0.13797    1.000
    N4605    N        0.90450    0.16757    0.21134    1.000
    Si4606   Si       0.88489    0.17436    0.17107    1.000
    Si4607   Si       0.90945    0.13525    0.24180    1.000
    N4608    N        0.75874    0.16331    0.33391    1.000
    N4609    N        0.77074    0.14881    0.26822    1.000
    N4610    N        0.81268    0.16462    0.36106    1.000
    Si4611   Si       0.78712    0.12882    0.34183    1.000
    Si4612   Si       0.80686    0.12569    0.27185    1.000
    N4613    N        0.91046    0.14023    0.29044    1.000
    N4614    N        0.92820    0.13441    0.35538    1.000
    N4615    N        0.98008    0.14218    0.31716    1.000
    Si4616   Si       0.89792    0.16250    0.36999    1.000
    N4617    N        0.88045    0.18292    0.33508    1.000
    Si4618   Si       0.97062    0.12601    0.35697    1.000
    N4619    N        0.82734    0.13582    0.49045    1.000
    Si4620   Si       0.82622    0.13905    0.39431    1.000
    N4621    N        0.81162    0.16192    0.42818    1.000
    Si4622   Si       0.80613    0.12735    0.45346    1.000
    N4623    N        0.96862    0.12787    0.48849    1.000
    N4624    N        0.91846    0.13120    0.43136    1.000
    N4625    N        0.98781    0.14535    0.39305    1.000
    N4626    N        0.86819    0.13826    0.38976    1.000
    Si4627   Si       0.91449    0.17457    0.43537    1.000
    N4628    N        0.88649    0.18153    0.46637    1.000
    Si4629   Si       0.86811    0.15056    0.49313    1.000
    N4630    N        0.76744    0.17020    0.59434    1.000
    Si4631   Si       0.76038    0.16274    0.55020    1.000
    Si4632   Si       0.79327    0.13008    0.58873    1.000
    N4633    N        0.78612    0.12703    0.54655    1.000
    N4634    N        0.87886    0.17357    0.52659    1.000
    Si4635   Si       0.90364    0.16348    0.56069    1.000
    Si4636   Si       0.97187    0.14213    0.52943    1.000
    N4637    N        0.94434    0.17226    0.54597    1.000
    N4638    N        0.75796    0.15599    0.66603    1.000
    N4639    N        0.82591    0.15008    0.66867    1.000
    Si4640   Si       0.78950    0.13538    0.68836    1.000
    N4641    N        0.78411    0.13342    0.72994    1.000
    Si4642   Si       0.74206    0.14866    0.62530    1.000
    Si4643   Si       0.89539    0.18324    0.63026    1.000
    Si4644   Si       0.90201    0.14635    0.74333    1.000
    Si4645   Si       0.96332    0.17352    0.66639    1.000
    N4646    N        0.88670    0.14223    0.64537    1.000
    N4647    N        0.94750    0.13396    0.67493    1.000
    N4648    N        0.82718    0.15471    0.82557    1.000
    Si4649   Si       0.76525    0.15041    0.76722    1.000
    N4650    N        0.75272    0.17113    0.80751    1.000
    Si4651   Si       0.84952    0.17754    0.78614    1.000
    N4652    N        0.80576    0.17950    0.77307    1.000
    Si4653   Si       0.86571    0.15866    0.84672    1.000
    N4654    N        0.86460    0.14142    0.76469    1.000
    Si4655   Si       0.96988    0.14676    0.77303    1.000
    N4656    N        0.97486    0.14534    0.81802    1.000
    N4657    N        0.93389    0.12543    0.76371    1.000
    N4658    N        0.89478    0.12807    0.85969    1.000
    N4659    N        0.73968    0.17113    0.89952    1.000
    N4660    N        0.81225    0.15855    0.90631    1.000
    Si4661   Si       0.85063    0.15886    0.98150    1.000
    Si4662   Si       0.77781    0.15911    0.88094    1.000
    N4663    N        0.81688    0.13402    0.97246    1.000
    Si4664   Si       0.89553    0.14531    0.90155    1.000
    Si4665   Si       0.93111    0.15809    0.97062    1.000
    Si4666   Si       0.95949    0.17977    0.90603    1.000
    N4667    N        0.92705    0.16213    0.92599    1.000
    N4668    N        0.96602    0.13480    0.97683    1.000
    N4669    N        0.87023    0.17623    0.88528    1.000
    N4670    N        0.89223    0.14098    0.99042    1.000
    N4671    N        0.78026    0.20039    0.03652    1.000
    Si4672   Si       0.91754    0.21213    0.01821    1.000
    N4673    N        0.93633    0.22154    0.10320    1.000
    Si4674   Si       0.94922    0.19073    0.07650    1.000
    N4675    N        0.88120    0.22847    0.00355    1.000
    N4676    N        0.74639    0.22468    0.12824    1.000
    N4677    N        0.81815    0.22592    0.15754    1.000
    N4678    N        0.82809    0.21343    0.22472    1.000
    Si4679   Si       0.81436    0.19485    0.18756    1.000
    Si4680   Si       0.78714    0.24081    0.13067    1.000
    N4681    N        0.88918    0.21703    0.16170    1.000
    N4682    N        0.95324    0.20466    0.23173    1.000
    N4683    N        0.95746    0.18820    0.16083    1.000
    Si4684   Si       0.97854    0.19310    0.19786    1.000
    Si4685   Si       0.90882    0.20651    0.23153    1.000
    Si4686   Si       0.92877    0.21849    0.14627    1.000
    N4687    N        0.76254    0.22301    0.32602    1.000
    N4688    N        0.76340    0.21078    0.25907    1.000
    Si4689   Si       0.78131    0.19698    0.35803    1.000
    N4690    N        0.82040    0.22307    0.35613    1.000
    Si4691   Si       0.83882    0.18947    0.33604    1.000
    N4692    N        0.81783    0.18820    0.29600    1.000
    Si4693   Si       0.83921    0.18762    0.25876    1.000
    Si4694   Si       0.77466    0.18784    0.29573    1.000
    Si4695   Si       0.96765    0.21220    0.27101    1.000
    N4696    N        0.93567    0.21062    0.29946    1.000
    N4697    N        0.88046    0.19668    0.26568    1.000
    Si4698   Si       0.90165    0.18232    0.29810    1.000
    Si4699   Si       0.79577    0.20102    0.43059    1.000
    N4700    N        0.82640    0.23025    0.42608    1.000
    N4701    N        0.76678    0.20402    0.39780    1.000
    N4702    N        0.78091    0.21735    0.46624    1.000
    Si4703   Si       0.74935    0.20552    0.49359    1.000
    Si4704   Si       0.95143    0.22860    0.46163    1.000
    N4705    N        0.95304    0.18877    0.44657    1.000
    N4706    N        0.90797    0.19319    0.39805    1.000
    Si4707   Si       0.91335    0.23860    0.39287    1.000
    N4708    N        0.81356    0.22337    0.57411    1.000
    N4709    N        0.76866    0.20019    0.53170    1.000
    Si4710   Si       0.78556    0.21204    0.60577    1.000
    Si4711   Si       0.78759    0.23866    0.54163    1.000
    Si4712   Si       0.85850    0.22111    0.57824    1.000
    Si4713   Si       0.94652    0.21545    0.53945    1.000
    N4714    N        0.94518    0.23189    0.57943    1.000
    Si4715   Si       0.96860    0.20512    0.60612    1.000
    N4716    N        0.93044    0.22582    0.49914    1.000
    N4717    N        0.87517    0.23508    0.54016    1.000
    Si4718   Si       0.88717    0.21058    0.50346    1.000
    N4719    N        0.87916    0.18473    0.59127    1.000
    N4720    N        0.76431    0.20530    0.71656    1.000
    N4721    N        0.83395    0.20611    0.70984    1.000
    N4722    N        0.79535    0.20740    0.64838    1.000
    Si4723   Si       0.76064    0.19955    0.67162    1.000
    Si4724   Si       0.80217    0.20825    0.73949    1.000
    Si4725   Si       0.83090    0.19458    0.66841    1.000
    Si4726   Si       0.95614    0.24063    0.66507    1.000
    N4727    N        0.95764    0.20695    0.69119    1.000
    Si4728   Si       0.87335    0.21573    0.72577    1.000
    N4729    N        0.86970    0.20930    0.65530    1.000
    Si4730   Si       0.94448    0.20425    0.73285    1.000
    N4731    N        0.90597    0.18670    0.73000    1.000
    N4732    N        0.98810    0.23317    0.63385    1.000
    N4733    N        0.93890    0.18621    0.63165    1.000
    N4734    N        0.82146    0.22511    0.82134    1.000
    Si4735   Si       0.80954    0.23436    0.86047    1.000
    N4736    N        0.78231    0.19929    0.86058    1.000
    N4737    N        0.85857    0.21778    0.76706    1.000
    Si4738   Si       0.79338    0.18703    0.81806    1.000
    N4739    N        0.95095    0.21732    0.81449    1.000
    Si4740   Si       0.91429    0.21266    0.83933    1.000
    Si4741   Si       0.96951    0.18510    0.83658    1.000
    N4742    N        0.97379    0.18535    0.75879    1.000
    N4743    N        0.93641    0.18765    0.86729    1.000
    N4744    N        0.88252    0.18632    0.81763    1.000
    Si4745   Si       0.74006    0.20883    0.87631    1.000
    N4746    N        0.84862    0.19091    0.95403    1.000
    Si4747   Si       0.83969    0.19014    0.91041    1.000
    N4748    N        0.83575    0.23018    0.89612    1.000
    N4749    N        0.96953    0.21953    0.92573    1.000
    Si4750   Si       0.86835    0.22917    0.96089    1.000
    N4751    N        0.89634    0.23415    0.92887    1.000
    Si4752   Si       0.93567    0.22964    0.94859    1.000
    N4753    N        0.93347    0.19906    0.97965    1.000
    N4754    N        0.83017    0.26286    0.04000    1.000
    N4755    N        0.75828    0.26604    0.03471    1.000
    Si4756   Si       0.83087    0.27845    0.08225    1.000
    Si4757   Si       0.85927    0.26676    0.00849    1.000
    N4758    N        0.79765    0.24631    0.09044    1.000
    N4759    N        0.86214    0.26839    0.11518    1.000
    Si4760   Si       0.79187    0.24219    0.04640    1.000
    Si4761   Si       0.74910    0.30256    0.01254    1.000
    Si4762   Si       0.95315    0.26195    0.10652    1.000
    Si4763   Si       0.93111    0.28112    0.00416    1.000
    N4764    N        0.92863    0.29444    0.09326    1.000
    N4765    N        0.88901    0.29649    0.01070    1.000
    N4766    N        0.93810    0.24798    0.03122    1.000
    N4767    N        0.78375    0.26465    0.21702    1.000
    N4768    N        0.77631    0.27833    0.14858    1.000
    Si4769   Si       0.82618    0.25826    0.22030    1.000
    Si4770   Si       0.76801    0.29289    0.18798    1.000
    N4771    N        0.85477    0.27187    0.18933    1.000
    Si4772   Si       0.75090    0.24888    0.24102    1.000
    Si4773   Si       0.85704    0.24623    0.15252    1.000
    Si4774   Si       0.89155    0.28508    0.20743    1.000
    N4775    N        0.94634    0.25729    0.15196    1.000
    N4776    N        0.97573    0.27588    0.21152    1.000
    N4777    N        0.90346    0.25045    0.23094    1.000
    Si4778   Si       0.95569    0.29164    0.17558    1.000
    N4779    N        0.84220    0.27598    0.25599    1.000
    N4780    N        0.76181    0.28868    0.32145    1.000
    N4781    N        0.83167    0.28300    0.31822    1.000
    Si4782   Si       0.79794    0.29162    0.34399    1.000
    Si4783   Si       0.87294    0.27968    0.33754    1.000
    Si4784   Si       0.94142    0.25612    0.31649    1.000
    N4785    N        0.89901    0.26802    0.30567    1.000
    Si4786   Si       0.88539    0.27202    0.26486    1.000
    N4787    N        0.97625    0.25329    0.28442    1.000
    N4788    N        0.94370    0.24461    0.36173    1.000
    N4789    N        0.95549    0.29880    0.32775    1.000
    N4790    N        0.80325    0.29028    0.45508    1.000
    N4791    N        0.81346    0.28424    0.38492    1.000
    Si4792   Si       0.83596    0.24765    0.38771    1.000
    Si4793   Si       0.81982    0.24885    0.46593    1.000
    N4794    N        0.86484    0.24394    0.48069    1.000
    N4795    N        0.93248    0.25280    0.42968    1.000
    Si4796   Si       0.98330    0.24660    0.37986    1.000
    N4797    N        0.87793    0.25496    0.37485    1.000
    Si4798   Si       0.93865    0.29504    0.43476    1.000
    N4799    N        0.98662    0.28680    0.39197    1.000
    N4800    N        0.99186    0.24566    0.46690    1.000
    Si4801   Si       0.85402    0.26443    0.51691    1.000
    N4802    N        0.81215    0.25870    0.51219    1.000
    N4803    N        0.74934    0.26287    0.54298    1.000
    N4804    N        0.76008    0.24666    0.60854    1.000
    N4805    N        0.86671    0.25257    0.60484    1.000
    Si4806   Si       0.93753    0.26712    0.60254    1.000
    N4807    N        0.97400    0.29271    0.60428    1.000
    N4808    N        0.96779    0.29206    0.51927    1.000
    N4809    N        0.91618    0.29197    0.57331    1.000
    Si4810   Si       0.87615    0.29371    0.59085    1.000
    Si4811   Si       0.76721    0.28783    0.62324    1.000
    N4812    N        0.73887    0.29023    0.65702    1.000
    N4813    N        0.84702    0.27357    0.67309    1.000
    Si4814   Si       0.87797    0.25273    0.64798    1.000
    Si4815   Si       0.93352    0.27063    0.71617    1.000
    N4816    N        0.89291    0.25049    0.70863    1.000
    N4817    N        0.92215    0.25323    0.64187    1.000
    N4818    N        0.97005    0.27130    0.69131    1.000
    Si4819   Si       0.87400    0.28806    0.70479    1.000
    N4820    N        0.78738    0.27089    0.86161    1.000
    N4821    N        0.75226    0.27530    0.80009    1.000
    Si4822   Si       0.75419    0.25627    0.76324    1.000
    Si4823   Si       0.78224    0.29402    0.82471    1.000
    N4824    N        0.79763    0.24640    0.76138    1.000
    Si4825   Si       0.83327    0.24663    0.78689    1.000
    N4826    N        0.86325    0.27798    0.79394    1.000
    Si4827   Si       0.89596    0.28012    0.82512    1.000
    N4828    N        0.93808    0.28162    0.80876    1.000
    Si4829   Si       0.95809    0.25113    0.78887    1.000
    N4830    N        0.93961    0.24540    0.74991    1.000
    N4831    N        0.89636    0.24862    0.85506    1.000
    Si4832   Si       0.76416    0.27561    0.89911    1.000
    N4833    N        0.79133    0.28963    0.93028    1.000
    N4834    N        0.84724    0.26685    0.96702    1.000
    Si4835   Si       0.83284    0.29377    0.93820    1.000
    N4836    N        0.86024    0.29216    0.90437    1.000
    Si4837   Si       0.95719    0.29465    0.93105    1.000
    Si4838   Si       0.87475    0.25186    0.89333    1.000
    N4839    N        0.94165    0.27055    0.96339    1.000
    Si4840   Si       0.83882    0.34109    0.10267    1.000
    N4841    N        0.80482    0.31304    0.09624    1.000
    Si4842   Si       0.76729    0.30960    0.11613    1.000
    N4843    N        0.78615    0.32247    0.00076    1.000
    N4844    N        0.98661    0.32640    0.06966    1.000
    N4845    N        0.86189    0.31362    0.07408    1.000
    N4846    N        0.91534    0.34946    0.05391    1.000
    Si4847   Si       0.87887    0.33108    0.03828    1.000
    Si4848   Si       0.94421    0.31973    0.06041    1.000
    N4849    N        0.95773    0.30830    0.01961    1.000
    Si4850   Si       0.88950    0.30150    0.10600    1.000
    N4851    N        0.77943    0.33452    0.19619    1.000
    N4852    N        0.75311    0.34737    0.13446    1.000
    Si4853   Si       0.78024    0.34937    0.23677    1.000
    N4854    N        0.87500    0.33382    0.13250    1.000
    Si4855   Si       0.91121    0.34351    0.21648    1.000
    N4856    N        0.91935    0.31058    0.18697    1.000
    N4857    N        0.89816    0.31040    0.24533    1.000
    N4858    N        0.97970    0.31816    0.15021    1.000
    Si4859   Si       0.97907    0.36077    0.15449    1.000
    N4860    N        0.79973    0.33696    0.34207    1.000
    Si4861   Si       0.84096    0.34840    0.33423    1.000
    N4862    N        0.78317    0.31727    0.26651    1.000
    N4863    N        0.84161    0.34691    0.29071    1.000
    Si4864   Si       0.82395    0.30558    0.28148    1.000
    Si4865   Si       0.74491    0.30783    0.28751    1.000
    N4866    N        0.87082    0.32247    0.35200    1.000
    Si4867   Si       0.97972    0.33267    0.31384    1.000
    N4868    N        0.98063    0.32121    0.27101    1.000
    N4869    N        0.96313    0.34707    0.36986    1.000
    Si4870   Si       0.95343    0.30574    0.37018    1.000
    Si4871   Si       0.74421    0.34478    0.43163    1.000
    Si4872   Si       0.76922    0.35643    0.36721    1.000
    N4873    N        0.85123    0.33130    0.41714    1.000
    N4874    N        0.77768    0.33950    0.40707    1.000
    Si4875   Si       0.81224    0.31221    0.41757    1.000
    N4876    N        0.74620    0.32489    0.47269    1.000
    Si4877   Si       0.78725    0.31907    0.48390    1.000
    N4878    N        0.80812    0.35427    0.46693    1.000
    N4879    N        0.91998    0.30766    0.39775    1.000
    N4880    N        0.91836    0.30769    0.47274    1.000
    Si4881   Si       0.95713    0.32291    0.48878    1.000
    N4882    N        0.97562    0.31637    0.45027    1.000
    Si4883   Si       0.88620    0.33122    0.39145    1.000
    Si4884   Si       0.83139    0.32832    0.53636    1.000
    Si4885   Si       0.82144    0.33806    0.60533    1.000
    N4886    N        0.78917    0.32038    0.52806    1.000
    N4887    N        0.84138    0.31270    0.57560    1.000
    N4888    N        0.74826    0.31333    0.59324    1.000
    N4889    N        0.86119    0.30529    0.51370    1.000
    Si4890   Si       0.75383    0.30642    0.55058    1.000
    N4891    N        0.97415    0.34344    0.56307    1.000
    Si4892   Si       0.94483    0.31569    0.54928    1.000
    N4893    N        0.92168    0.34478    0.52593    1.000
    Si4894   Si       0.89128    0.33094    0.49601    1.000
    N4895    N        0.97860    0.36026    0.49560    1.000
    Si4896   Si       0.99038    0.33376    0.60099    1.000
    Si4897   Si       0.81995    0.30948    0.67576    1.000
    Si4898   Si       0.85502    0.35065    0.72628    1.000
    N4899    N        0.85433    0.33638    0.68234    1.000
    N4900    N        0.78568    0.32042    0.70233    1.000
    N4901    N        0.80317    0.31142    0.63383    1.000
    N4902    N        0.85065    0.30607    0.73594    1.000
    Si4903   Si       0.77995    0.36110    0.72298    1.000
    Si4904   Si       0.74720    0.30202    0.69795    1.000
    N4905    N        0.97146    0.35838    0.70386    1.000
    Si4906   Si       0.87971    0.34501    0.64891    1.000
    Si4907   Si       0.92759    0.34868    0.70027    1.000
    N4908    N        0.91486    0.30711    0.70509    1.000
    N4909    N        0.88633    0.30672    0.63108    1.000
    N4910    N        0.75357    0.33294    0.82859    1.000
    Si4911   Si       0.84612    0.31412    0.77794    1.000
    N4912    N        0.80890    0.31930    0.79703    1.000
    Si4913   Si       0.77855    0.35262    0.79958    1.000
    N4914    N        0.75987    0.35406    0.76096    1.000
    N4915    N        0.85818    0.35697    0.77366    1.000
    N4916    N        0.88914    0.31707    0.84719    1.000
    Si4917   Si       0.95447    0.32355    0.80493    1.000
    N4918    N        0.98171    0.33572    0.83643    1.000
    N4919    N        0.92062    0.35066    0.79590    1.000
    N4920    N        0.98149    0.32430    0.76799    1.000
    N4921    N        0.83532    0.33448    0.95601    1.000
    Si4922   Si       0.77448    0.31826    0.95733    1.000
    N4923    N        0.76670    0.35548    0.93694    1.000
    Si4924   Si       0.81820    0.35248    0.99378    1.000
    N4925    N        0.92810    0.30375    0.90212    1.000
    Si4926   Si       0.89079    0.31815    0.89066    1.000
    N4927    N        0.97571    0.33285    0.94423    1.000
    N4928    N        0.87791    0.35782    0.90168    1.000
    N4929    N        0.83800    0.38023    0.08285    1.000
    N4930    N        0.76944    0.40268    0.10064    1.000
    Si4931   Si       0.85277    0.39654    0.04572    1.000
    Si4932   Si       0.81140    0.39898    0.11207    1.000
    N4933    N        0.84884    0.35948    0.02228    1.000
    Si4934   Si       0.92348    0.39064    0.05766    1.000
    N4935    N        0.93181    0.39880    0.09919    1.000
    N4936    N        0.95733    0.39775    0.03230    1.000
    Si4937   Si       0.97079    0.41673    0.99704    1.000
    Si4938   Si       0.97367    0.41748    0.10579    1.000
    N4939    N        0.89345    0.41680    0.04086    1.000
    N4940    N        0.76954    0.40248    0.17783    1.000
    N4941    N        0.82000    0.36833    0.14234    1.000
    N4942    N        0.81147    0.37994    0.23589    1.000
    Si4943   Si       0.79633    0.41295    0.21109    1.000
    Si4944   Si       0.78106    0.36385    0.16363    1.000
    Si4945   Si       0.92504    0.40787    0.13938    1.000
    N4946    N        0.94659    0.38516    0.16936    1.000
    Si4947   Si       0.86264    0.36658    0.15856    1.000
    Si4948   Si       0.87203    0.40664    0.21613    1.000
    N4949    N        0.87597    0.36610    0.20035    1.000
    N4950    N        0.88213    0.40414    0.14596    1.000
    Si4951   Si       0.94935    0.40325    0.20841    1.000
    N4952    N        0.94562    0.36717    0.23158    1.000
    Si4953   Si       0.83459    0.38482    0.27176    1.000
    N4954    N        0.84396    0.38709    0.35265    1.000
    N4955    N        0.80691    0.40664    0.29808    1.000
    N4956    N        0.77272    0.39720    0.35668    1.000
    N4957    N        0.75239    0.37585    0.25946    1.000
    Si4958   Si       0.77026    0.41142    0.27609    1.000
    Si4959   Si       0.80913    0.41278    0.34048    1.000
    N4960    N        0.86752    0.41327    0.26032    1.000
    N4961    N        0.97159    0.37421    0.30219    1.000
    Si4962   Si       0.97743    0.40661    0.33164    1.000
    N4963    N        0.94615    0.41474    0.35965    1.000
    Si4964   Si       0.97985    0.36251    0.26003    1.000
    N4965    N        0.84666    0.40309    0.42188    1.000
    Si4966   Si       0.84432    0.36516    0.44566    1.000
    N4967    N        0.90164    0.37277    0.39256    1.000
    Si4968   Si       0.94362    0.38161    0.38873    1.000
    Si4969   Si       0.86988    0.40227    0.38485    1.000
    N4970    N        0.87406    0.36611    0.47690    1.000
    N4971    N        0.96520    0.38922    0.42697    1.000
    Si4972   Si       0.81390    0.39386    0.56111    1.000
    N4973    N        0.83870    0.37271    0.53392    1.000
    N4974    N        0.79461    0.37057    0.59213    1.000
    Si4975   Si       0.86350    0.39762    0.50603    1.000
    N4976    N        0.85470    0.36223    0.61937    1.000
    Si4977   Si       0.87317    0.39937    0.60519    1.000
    N4978    N        0.91410    0.38805    0.59256    1.000
    N4979    N        0.96311    0.40584    0.54606    1.000
    Si4980   Si       0.92374    0.38218    0.54905    1.000
    N4981    N        0.89964    0.41343    0.52641    1.000
    Si4982   Si       0.98829    0.37372    0.53621    1.000
    Si4983   Si       0.77451    0.39230    0.62657    1.000
    N4984    N        0.82009    0.37898    0.72440    1.000
    N4985    N        0.79956    0.40709    0.65773    1.000
    N4986    N        0.75418    0.39106    0.70330    1.000
    N4987    N        0.74619    0.36376    0.64275    1.000
    Si4988   Si       0.82948    0.42012    0.73421    1.000
    N4989    N        0.97581    0.35987    0.63200    1.000
    N4990    N        0.91657    0.36299    0.66038    1.000
    Si4991   Si       0.93733    0.38392    0.62932    1.000
    N4992    N        0.89592    0.36725    0.72487    1.000
    Si4993   Si       0.84041    0.38741    0.79898    1.000
    N4994    N        0.80124    0.38770    0.81403    1.000
    N4995    N        0.87199    0.38943    0.82807    1.000
    N4996    N        0.93002    0.37379    0.86208    1.000
    Si4997   Si       0.89948    0.37349    0.76709    1.000
    Si4998   Si       0.97336    0.37188    0.85700    1.000
    N4999    N        0.91892    0.41237    0.76579    1.000
    N5000    N        0.99054    0.40133    0.75454    1.000
    Si5001   Si       0.90040    0.35705    0.83463    1.000
    N5002    N        0.79591    0.38877    0.98468    1.000
    Si5003   Si       0.85031    0.36866    0.93342    1.000
    N5004    N        0.74619    0.41119    0.92708    1.000
    Si5005   Si       0.78388    0.39347    0.94165    1.000
    N5006    N        0.82134    0.39803    0.92090    1.000
    N5007    N        0.92785    0.39184    0.93188    1.000
    Si5008   Si       0.96800    0.37558    0.93364    1.000
    N5009    N        0.86866    0.39704    0.96239    1.000
    Si5010   Si       0.90548    0.39130    0.89348    1.000
    Si5011   Si       0.75507    0.44192    0.09730    1.000
    N5012    N        0.82630    0.42811    0.02977    1.000
    N5013    N        0.78106    0.46485    0.07313    1.000
    Si5014   Si       0.84448    0.46775    0.03277    1.000
    N5015    N        0.75720    0.44849    0.01033    1.000
    Si5016   Si       0.81475    0.47167    0.09990    1.000
    Si5017   Si       0.79551    0.42966    0.99928    1.000
    Si5018   Si       0.91718    0.44996    0.02416    1.000
    N5019    N        0.94937    0.47170    0.04612    1.000
    Si5020   Si       0.85480    0.43713    0.15819    1.000
    N5021    N        0.83608    0.42531    0.19628    1.000
    N5022    N        0.82601    0.43743    0.12542    1.000
    N5023    N        0.76661    0.43163    0.23848    1.000
    N5024    N        0.75277    0.45695    0.13759    1.000
    N5025    N        0.91170    0.42392    0.21415    1.000
    N5026    N        0.98868    0.42262    0.20777    1.000
    N5027    N        0.95210    0.44327    0.13516    1.000
    Si5028   Si       0.85613    0.46626    0.34560    1.000
    N5029    N        0.81695    0.45061    0.35790    1.000
    N5030    N        0.74809    0.43675    0.30534    1.000
    N5031    N        0.85204    0.46855    0.30193    1.000
    Si5032   Si       0.74145    0.42560    0.34770    1.000
    N5033    N        0.92193    0.46404    0.28008    1.000
    Si5034   Si       0.88136    0.45353    0.26973    1.000
    N5035    N        0.98805    0.44843    0.31831    1.000
    N5036    N        0.88246    0.43992    0.36816    1.000
    Si5037   Si       0.95203    0.47318    0.30940    1.000
    N5038    N        0.74904    0.46178    0.37306    1.000
    N5039    N        0.79154    0.44798    0.42833    1.000
    Si5040   Si       0.76297    0.46295    0.45725    1.000
    Si5041   Si       0.83045    0.43611    0.44435    1.000
    N5042    N        0.84672    0.43042    0.48434    1.000
    Si5043   Si       0.78916    0.46884    0.38858    1.000
    N5044    N        0.75271    0.43361    0.48518    1.000
    Si5045   Si       0.86393    0.47149    0.48393    1.000
    N5046    N        0.94841    0.43978    0.48308    1.000
    Si5047   Si       0.92565    0.44847    0.37386    1.000
    Si5048   Si       0.98256    0.46858    0.48267    1.000
    Si5049   Si       0.95751    0.42995    0.44011    1.000
    N5050    N        0.93193    0.45355    0.41612    1.000
    Si5051   Si       0.81434    0.45487    0.57848    1.000
    Si5052   Si       0.75110    0.42453    0.52672    1.000
    N5053    N        0.75253    0.42869    0.61440    1.000
    N5054    N        0.78814    0.42685    0.55214    1.000
    N5055    N        0.84340    0.42056    0.57986    1.000
    N5056    N        0.81250    0.46035    0.62254    1.000
    N5057    N        0.93902    0.46588    0.54999    1.000
    Si5058   Si       0.92154    0.44894    0.51504    1.000
    Si5059   Si       0.97780    0.44737    0.55268    1.000
    N5060    N        0.78992    0.43768    0.73456    1.000
    N5061    N        0.84367    0.43766    0.69649    1.000
    N5062    N        0.77561    0.46253    0.67555    1.000
    Si5063   Si       0.76919    0.46627    0.63298    1.000
    Si5064   Si       0.83227    0.43484    0.65362    1.000
    Si5065   Si       0.78007    0.42340    0.69482    1.000
    Si5066   Si       0.86280    0.47583    0.70773    1.000
    N5067    N        0.87384    0.42505    0.63887    1.000
    N5068    N        0.95680    0.44754    0.71417    1.000
    Si5069   Si       0.97487    0.43903    0.67461    1.000
    N5070    N        0.94400    0.42451    0.64747    1.000
    Si5071   Si       0.90868    0.44978    0.64891    1.000
    N5072    N        0.83397    0.45339    0.84005    1.000
    N5073    N        0.78087    0.45908    0.79647    1.000
    Si5074   Si       0.76068    0.45886    0.75968    1.000
    N5075    N        0.77496    0.43860    0.86443    1.000
    Si5076   Si       0.77664    0.42318    0.82271    1.000
    N5077    N        0.85004    0.41958    0.77227    1.000
    Si5078   Si       0.86986    0.43160    0.84193    1.000
    Si5079   Si       0.97055    0.44510    0.82187    1.000
    Si5080   Si       0.88754    0.44127    0.77495    1.000
    N5081    N        0.89817    0.44980    0.81519    1.000
    N5082    N        0.96121    0.46048    0.78175    1.000
    Si5083   Si       0.95652    0.42709    0.75425    1.000
    N5084    N        0.87982    0.47116    0.74578    1.000
    Si5085   Si       0.80462    0.46894    0.86980    1.000
    N5086    N        0.81003    0.44896    0.96180    1.000
    Si5087   Si       0.84352    0.43052    0.94107    1.000
    Si5088   Si       0.74458    0.44191    0.89638    1.000
    N5089    N        0.75301    0.47723    0.92262    1.000
    N5090    N        0.94108    0.46299    0.91292    1.000
    N5091    N        0.93497    0.44180    0.98264    1.000
    N5092    N        0.88118    0.45561    0.94047    1.000
    Si5093   Si       0.89804    0.46687    0.89984    1.000
    N5094    N        0.88521    0.42851    0.88155    1.000
    Si5095   Si       0.95121    0.47182    0.95231    1.000
    Si5096   Si       0.90532    0.41967    0.95611    1.000
    N5097    N        0.81138    0.49275    0.01792    1.000
    Si5098   Si       0.77018    0.48380    0.03417    1.000
    N5099    N        0.84686    0.48086    0.07410    1.000
    N5100    N        0.74173    0.51762    0.10712    1.000
    Si5101   Si       0.87311    0.51452    0.08336    1.000
    N5102    N        0.90701    0.48980    0.09812    1.000
    Si5103   Si       0.94102    0.50559    0.07529    1.000
    N5104    N        0.97398    0.50235    0.10279    1.000
    N5105    N        0.88000    0.47522    0.01069    1.000
    N5106    N        0.80321    0.50195    0.12869    1.000
    N5107    N        0.82980    0.52218    0.19228    1.000
    N5108    N        0.75817    0.51225    0.18219    1.000
    Si5109   Si       0.76115    0.50054    0.14117    1.000
    Si5110   Si       0.78765    0.51973    0.21322    1.000
    Si5111   Si       0.83159    0.52922    0.14788    1.000
    N5112    N        0.86253    0.48337    0.24181    1.000
    N5113    N        0.86869    0.52909    0.12738    1.000
    N5114    N        0.87173    0.47679    0.16606    1.000
    Si5115   Si       0.89798    0.49972    0.13990    1.000
    N5116    N        0.89897    0.53229    0.21052    1.000
    Si5117   Si       0.86830    0.50116    0.20141    1.000
    N5118    N        0.93475    0.50411    0.16046    1.000
    Si5119   Si       0.93903    0.52139    0.19846    1.000
    N5120    N        0.96403    0.49220    0.22033    1.000
    Si5121   Si       0.96865    0.48073    0.13932    1.000
    Si5122   Si       0.83155    0.49575    0.27333    1.000
    N5123    N        0.74010    0.51323    0.30057    1.000
    N5124    N        0.79658    0.49759    0.24828    1.000
    N5125    N        0.86296    0.50628    0.35964    1.000
    N5126    N        0.83137    0.53782    0.28519    1.000
    Si5127   Si       0.97312    0.51663    0.25534    1.000
    Si5128   Si       0.90614    0.51720    0.35643    1.000
    N5129    N        0.97412    0.50916    0.29730    1.000
    N5130    N        0.93093    0.48337    0.34715    1.000
    Si5131   Si       0.81359    0.50873    0.44573    1.000
    Si5132   Si       0.82893    0.52962    0.37527    1.000
    N5133    N        0.79844    0.50999    0.40006    1.000
    N5134    N        0.78782    0.49376    0.47968    1.000
    N5135    N        0.84609    0.48162    0.44569    1.000
    N5136    N        0.96737    0.50906    0.47554    1.000
    N5137    N        0.98654    0.51665    0.41507    1.000
    Si5138   Si       0.92684    0.50787    0.46742    1.000
    N5139    N        0.79822    0.49203    0.56046    1.000
    Si5140   Si       0.80405    0.50723    0.51974    1.000
    Si5141   Si       0.76776    0.51898    0.57607    1.000
    N5142    N        0.84455    0.49562    0.51386    1.000
    N5143    N        0.75316    0.50383    0.61442    1.000
    N5144    N        0.73749    0.52064    0.54510    1.000
    Si5145   Si       0.88402    0.51220    0.52408    1.000
    Si5146   Si       0.92667    0.49406    0.58006    1.000
    N5147    N        0.88999    0.51437    0.56733    1.000
    N5148    N        0.95684    0.52502    0.58148    1.000
    N5149    N        0.91871    0.48168    0.61962    1.000
    N5150    N        0.90328    0.48523    0.49528    1.000
    N5151    N        0.82890    0.50298    0.71020    1.000
    Si5152   Si       0.78431    0.49518    0.70370    1.000
    N5153    N        0.77532    0.52660    0.67449    1.000
    N5154    N        0.75638    0.49616    0.73639    1.000
    N5155    N        0.89207    0.48182    0.67604    1.000
    N5156    N        0.94922    0.52394    0.71882    1.000
    Si5157   Si       0.97299    0.48827    0.71525    1.000
    Si5158   Si       0.90380    0.51264    0.64629    1.000
    N5159    N        0.87225    0.53699    0.63097    1.000
    N5160    N        0.84120    0.50972    0.79245    1.000
    N5161    N        0.79484    0.50570    0.84640    1.000
    Si5162   Si       0.81457    0.48230    0.81347    1.000
    N5163    N        0.90682    0.51540    0.80218    1.000
    Si5164   Si       0.87752    0.50847    0.77049    1.000
    Si5165   Si       0.91590    0.48511    0.83220    1.000
    N5166    N        0.95441    0.47396    0.84698    1.000
    N5167    N        0.78608    0.52069    0.95934    1.000
    N5168    N        0.85175    0.51482    0.95801    1.000
    Si5169   Si       0.82044    0.52224    0.98709    1.000
    Si5170   Si       0.83939    0.52290    0.91611    1.000
    Si5171   Si       0.79167    0.48227    0.94151    1.000
    N5172    N        0.82074    0.48316    0.90700    1.000
    N5173    N        0.89597    0.49491    0.86893    1.000
    Si5174   Si       0.96188    0.49281    0.88661    1.000
    N5175    N        0.93926    0.52777    0.90402    1.000
    N5176    N        0.92372    0.50487    0.96589    1.000
    Si5177   Si       0.88378    0.48899    0.97061    1.000
    Si5178   Si       0.75402    0.55496    0.08856    1.000
    N5179    N        0.82158    0.56095    0.00562    1.000
    Si5180   Si       0.82051    0.56382    0.04849    1.000
    N5181    N        0.78567    0.54522    0.06354    1.000
    N5182    N        0.85792    0.54660    0.05934    1.000
    Si5183   Si       0.89196    0.57389    0.05289    1.000
    Si5184   Si       0.95643    0.57511    0.05930    1.000
    N5185    N        0.92451    0.54482    0.06139    1.000
    N5186    N        0.88191    0.59313    0.01440    1.000
    N5187    N        0.95018    0.59725    0.02177    1.000
    N5188    N        0.85431    0.58871    0.20824    1.000
    Si5189   Si       0.82038    0.56888    0.19324    1.000
    N5190    N        0.81179    0.56549    0.15176    1.000
    N5191    N        0.78370    0.56292    0.21482    1.000
    Si5192   Si       0.89016    0.57244    0.22695    1.000
    Si5193   Si       0.96759    0.58380    0.15711    1.000
    Si5194   Si       0.95890    0.58485    0.23036    1.000
    N5195    N        0.96339    0.56033    0.19220    1.000
    N5196    N        0.76911    0.58266    0.29986    1.000
    N5197    N        0.80780    0.55566    0.34775    1.000
    Si5198   Si       0.81032    0.56895    0.30421    1.000
    Si5199   Si       0.77655    0.58571    0.35893    1.000
    N5200    N        0.73889    0.56526    0.35727    1.000
    Si5201   Si       0.73973    0.55307    0.31437    1.000
    Si5202   Si       0.92468    0.56398    0.28963    1.000
    N5203    N        0.88915    0.58042    0.26939    1.000
    N5204    N        0.94658    0.55075    0.25593    1.000
    N5205    N        0.98250    0.55397    0.35628    1.000
    N5206    N        0.91021    0.54105    0.32112    1.000
    Si5207   Si       0.97771    0.59403    0.34077    1.000
    N5208    N        0.74210    0.57171    0.49473    1.000
    Si5209   Si       0.77573    0.54647    0.41557    1.000
    Si5210   Si       0.83024    0.58354    0.43158    1.000
    Si5211   Si       0.78505    0.56946    0.48545    1.000
    N5212    N        0.78621    0.58717    0.40299    1.000
    N5213    N        0.85030    0.55354    0.40420    1.000
    N5214    N        0.80202    0.55012    0.44996    1.000
    N5215    N        0.85814    0.58886    0.46464    1.000
    N5216    N        0.96563    0.58405    0.42153    1.000
    Si5217   Si       0.89471    0.57564    0.48555    1.000
    Si5218   Si       0.96368    0.54880    0.39571    1.000
    Si5219   Si       0.89229    0.55881    0.41829    1.000
    N5220    N        0.90724    0.54406    0.45794    1.000
    N5221    N        0.92184    0.54120    0.39111    1.000
    Si5222   Si       0.84025    0.57116    0.53327    1.000
    N5223    N        0.83893    0.56848    0.57714    1.000
    N5224    N        0.77307    0.55836    0.59170    1.000
    N5225    N        0.80471    0.55196    0.51953    1.000
    Si5226   Si       0.80442    0.58741    0.59720    1.000
    Si5227   Si       0.74002    0.58331    0.60482    1.000
    Si5228   Si       0.94743    0.56794    0.57287    1.000
    N5229    N        0.91009    0.57930    0.58810    1.000
    N5230    N        0.96853    0.57850    0.53410    1.000
    N5231    N        0.87945    0.55389    0.51975    1.000
    N5232    N        0.97154    0.58517    0.60558    1.000
    Si5233   Si       0.87552    0.55015    0.58984    1.000
    N5234    N        0.80681    0.57143    0.64007    1.000
    N5235    N        0.84354    0.57192    0.69243    1.000
    Si5236   Si       0.84972    0.56713    0.65071    1.000
    N5237    N        0.76836    0.58339    0.70051    1.000
    Si5238   Si       0.83879    0.54293    0.72367    1.000
    Si5239   Si       0.77890    0.58425    0.74298    1.000
    Si5240   Si       0.74166    0.55367    0.68447    1.000
    Si5241   Si       0.77610    0.54029    0.63503    1.000
    Si5242   Si       0.90080    0.58067    0.74270    1.000
    N5243    N        0.93622    0.54201    0.65455    1.000
    N5244    N        0.87687    0.54206    0.74411    1.000
    Si5245   Si       0.94847    0.55866    0.69293    1.000
    N5246    N        0.92193    0.59046    0.70603    1.000
    Si5247   Si       0.97509    0.55568    0.63680    1.000
    N5248    N        0.79703    0.56479    0.82170    1.000
    Si5249   Si       0.82783    0.55081    0.79593    1.000
    N5250    N        0.80977    0.55560    0.75483    1.000
    Si5251   Si       0.78399    0.54682    0.85789    1.000
    N5252    N        0.73744    0.55882    0.86475    1.000
    N5253    N        0.86469    0.57225    0.80361    1.000
    N5254    N        0.92790    0.57450    0.77689    1.000
    Si5255   Si       0.90597    0.55634    0.81050    1.000
    N5256    N        0.92480    0.55854    0.84806    1.000
    Si5257   Si       0.96546    0.57779    0.85859    1.000
    Si5258   Si       0.81195    0.58625    0.92141    1.000
    N5259    N        0.80777    0.55009    0.89532    1.000
    Si5260   Si       0.75787    0.55369    0.96207    1.000
    N5261    N        0.77402    0.58834    0.94219    1.000
    N5262    N        0.84661    0.58638    0.94838    1.000
    Si5263   Si       0.84489    0.59385    0.99016    1.000
    N5264    N        0.87309    0.54790    0.90333    1.000
    Si5265   Si       0.94116    0.54040    0.94681    1.000
    N5266    N        0.91779    0.57731    0.95457    1.000
    N5267    N        0.98160    0.55725    0.95224    1.000
    Si5268   Si       0.88453    0.58159    0.92688    1.000
    Si5269   Si       0.98964    0.59586    0.93221    1.000
    Si5270   Si       0.90575    0.53583    0.87898    1.000
    N5271    N        0.75833    0.62444    0.04530    1.000
    Si5272   Si       0.80122    0.63212    0.03568    1.000
    Si5273   Si       0.84995    0.62075    0.09090    1.000
    N5274    N        0.81972    0.60468    0.06291    1.000
    N5275    N        0.82097    0.62740    0.99795    1.000
    Si5276   Si       0.74308    0.62456    0.08851    1.000
    N5277    N        0.76369    0.59198    0.10934    1.000
    Si5278   Si       0.92259    0.62186    0.10849    1.000
    N5279    N        0.96006    0.60759    0.08736    1.000
    N5280    N        0.89023    0.60424    0.08485    1.000
    N5281    N        0.74359    0.62207    0.23679    1.000
    N5282    N        0.83307    0.62594    0.13332    1.000
    Si5283   Si       0.79564    0.60287    0.13818    1.000
    N5284    N        0.77623    0.61695    0.17500    1.000
    Si5285   Si       0.85342    0.63054    0.20899    1.000
    Si5286   Si       0.75348    0.59405    0.20429    1.000
    N5287    N        0.93468    0.61332    0.14951    1.000
    Si5288   Si       0.92504    0.63194    0.18743    1.000
    N5289    N        0.95916    0.65417    0.20265    1.000
    N5290    N        0.92170    0.60320    0.22024    1.000
    N5291    N        0.78766    0.62844    0.35534    1.000
    Si5292   Si       0.80947    0.64098    0.32078    1.000
    Si5293   Si       0.75131    0.61767    0.28066    1.000
    N5294    N        0.83108    0.60629    0.30686    1.000
    N5295    N        0.78082    0.64983    0.28902    1.000
    N5296    N        0.86008    0.64059    0.25213    1.000
    Si5297   Si       0.86821    0.61459    0.28562    1.000
    N5298    N        0.89010    0.63693    0.31456    1.000
    Si5299   Si       0.93083    0.62816    0.32778    1.000
    N5300    N        0.94734    0.61323    0.36597    1.000
    N5301    N        0.94876    0.59520    0.30607    1.000
    Si5302   Si       0.79529    0.63114    0.39863    1.000
    N5303    N        0.83583    0.62461    0.41344    1.000
    Si5304   Si       0.84217    0.62733    0.48174    1.000
    N5305    N        0.79818    0.61157    0.47443    1.000
    Si5306   Si       0.78388    0.65236    0.47001    1.000
    Si5307   Si       0.91271    0.65091    0.47315    1.000
    N5308    N        0.87179    0.65289    0.46054    1.000
    Si5309   Si       0.87554    0.64159    0.41643    1.000
    N5310    N        0.92052    0.61029    0.49055    1.000
    Si5311   Si       0.93823    0.61505    0.40891    1.000
    N5312    N        0.93357    0.65013    0.43374    1.000
    N5313    N        0.89663    0.60247    0.41215    1.000
    N5314    N        0.84669    0.61350    0.52291    1.000
    N5315    N        0.80878    0.62659    0.58010    1.000
    Si5316   Si       0.84452    0.63867    0.55721    1.000
    Si5317   Si       0.77317    0.65232    0.58643    1.000
    N5318    N        0.76014    0.61855    0.61589    1.000
    N5319    N        0.88105    0.63816    0.58144    1.000
    Si5320   Si       0.96155    0.61246    0.50877    1.000
    Si5321   Si       0.90019    0.61393    0.61170    1.000
    N5322    N        0.96813    0.64586    0.53532    1.000
    N5323    N        0.98322    0.65633    0.59609    1.000
    Si5324   Si       0.77019    0.64512    0.64829    1.000
    Si5325   Si       0.85146    0.64324    0.65547    1.000
    N5326    N        0.81344    0.61763    0.72741    1.000
    N5327    N        0.80922    0.63531    0.66488    1.000
    Si5328   Si       0.85326    0.63537    0.72617    1.000
    Si5329   Si       0.80576    0.59611    0.68566    1.000
    N5330    N        0.86562    0.60651    0.63754    1.000
    N5331    N        0.92796    0.63420    0.63981    1.000
    Si5332   Si       0.91877    0.62975    0.68482    1.000
    N5333    N        0.87733    0.64374    0.69160    1.000
    N5334    N        0.76805    0.61731    0.85082    1.000
    N5335    N        0.82125    0.63207    0.79961    1.000
    Si5336   Si       0.78809    0.60758    0.81455    1.000
    N5337    N        0.76768    0.61363    0.77357    1.000
    Si5338   Si       0.80113    0.64651    0.76256    1.000
    Si5339   Si       0.86153    0.61607    0.79675    1.000
    N5340    N        0.95243    0.63589    0.76778    1.000
    N5341    N        0.95927    0.60906    0.82808    1.000
    N5342    N        0.87892    0.61626    0.75459    1.000
    Si5343   Si       0.91150    0.64524    0.77313    1.000
    Si5344   Si       0.96688    0.64753    0.84555    1.000
    N5345    N        0.88817    0.64845    0.80858    1.000
    Si5346   Si       0.96278    0.59788    0.78655    1.000
    Si5347   Si       0.78559    0.64344    0.88339    1.000
    N5348    N        0.82033    0.62106    0.89645    1.000
    Si5349   Si       0.74874    0.62252    0.94591    1.000
    Si5350   Si       0.85567    0.64612    0.90632    1.000
    Si5351   Si       0.91854    0.60446    0.99065    1.000
    N5352    N        0.96009    0.60006    0.89815    1.000
    Si5353   Si       0.93200    0.63283    0.90082    1.000
    N5354    N        0.92022    0.64694    0.98259    1.000
    N5355    N        0.89106    0.62081    0.90966    1.000
    N5356    N        0.98306    0.62153    0.96794    1.000
    N5357    N        0.79688    0.67525    0.03775    1.000
    Si5358   Si       0.75331    0.67203    0.04111    1.000
    Si5359   Si       0.84736    0.69736    0.05268    1.000
    N5360    N        0.85098    0.66523    0.08235    1.000
    N5361    N        0.74617    0.66853    0.08699    1.000
    Si5362   Si       0.76980    0.69874    0.11107    1.000
    N5363    N        0.86273    0.68046    0.01564    1.000
    Si5364   Si       0.94669    0.68724    0.07781    1.000
    N5365    N        0.93797    0.68450    0.03531    1.000
    Si5366   Si       0.88040    0.68652    0.10497    1.000
    N5367    N        0.91864    0.66530    0.10317    1.000
    Si5368   Si       0.90400    0.68062    0.00579    1.000
    Si5369   Si       0.95404    0.71553    0.00683    1.000
    N5370    N        0.74357    0.67773    0.19262    1.000
    N5371    N        0.79116    0.67810    0.14184    1.000
    Si5372   Si       0.83109    0.66636    0.15051    1.000
    Si5373   Si       0.82941    0.69086    0.22095    1.000
    Si5374   Si       0.78071    0.65831    0.17993    1.000
    N5375    N        0.82247    0.65834    0.19544    1.000
    N5376    N        0.85965    0.69711    0.14084    1.000
    N5377    N        0.86721    0.70405    0.23351    1.000
    Si5378   Si       0.89020    0.66764    0.23789    1.000
    Si5379   Si       0.95853    0.67915    0.23728    1.000
    N5380    N        0.88897    0.65126    0.19777    1.000
    N5381    N        0.83478    0.67548    0.32711    1.000
    Si5382   Si       0.77137    0.69001    0.27736    1.000
    N5383    N        0.80225    0.70514    0.25020    1.000
    Si5384   Si       0.87531    0.66976    0.34021    1.000
    Si5385   Si       0.93033    0.69395    0.30110    1.000
    N5386    N        0.92429    0.67460    0.26164    1.000
    N5387    N        0.95261    0.66526    0.32476    1.000
    N5388    N        0.89730    0.70461    0.32470    1.000
    Si5389   Si       0.98758    0.66433    0.34946    1.000
    Si5390   Si       0.84625    0.69047    0.46317    1.000
    Si5391   Si       0.75876    0.69320    0.41607    1.000
    N5392    N        0.81715    0.67135    0.48861    1.000
    N5393    N        0.74390    0.69744    0.37601    1.000
    N5394    N        0.84432    0.70678    0.42327    1.000
    N5395    N        0.78113    0.65898    0.42686    1.000
    N5396    N        0.74727    0.65588    0.49413    1.000
    N5397    N        0.98311    0.67389    0.39200    1.000
    Si5398   Si       0.95477    0.68626    0.42341    1.000
    Si5399   Si       0.88397    0.70959    0.40108    1.000
    N5400    N        0.97568    0.69922    0.45951    1.000
    N5401    N        0.88477    0.66860    0.38398    1.000
    Si5402   Si       0.81281    0.69625    0.52615    1.000
    N5403    N        0.84914    0.68161    0.54989    1.000
    Si5404   Si       0.74645    0.68545    0.52677    1.000
    N5405    N        0.78487    0.67607    0.55176    1.000
    N5406    N        0.76987    0.67987    0.62145    1.000
    Si5407   Si       0.87461    0.68201    0.58655    1.000
    N5408    N        0.91790    0.68917    0.57659    1.000
    Si5409   Si       0.94425    0.68084    0.54366    1.000
    N5410    N        0.91825    0.67973    0.50710    1.000
    N5411    N        0.85769    0.67627    0.62781    1.000
    Si5412   Si       0.96057    0.66342    0.63185    1.000
    Si5413   Si       0.93890    0.69511    0.72637    1.000
    N5414    N        0.94877    0.66020    0.70117    1.000
    N5415    N        0.96777    0.70427    0.64719    1.000
    N5416    N        0.78698    0.68191    0.86261    1.000
    Si5417   Si       0.76505    0.70646    0.83448    1.000
    N5418    N        0.78701    0.70352    0.79638    1.000
    N5419    N        0.83546    0.67020    0.74603    1.000
    N5420    N        0.76918    0.67179    0.74108    1.000
    N5421    N        0.92889    0.65515    0.86277    1.000
    Si5422   Si       0.86701    0.69851    0.75229    1.000
    Si5423   Si       0.98044    0.66682    0.77671    1.000
    N5424    N        0.97555    0.67857    0.81783    1.000
    N5425    N        0.97485    0.70384    0.75131    1.000
    Si5426   Si       0.89436    0.67311    0.84645    1.000
    N5427    N        0.90516    0.68026    0.74954    1.000
    Si5428   Si       0.78518    0.69135    0.93680    1.000
    N5429    N        0.85337    0.66555    0.94714    1.000
    Si5430   Si       0.82363    0.70178    0.87382    1.000
    N5431    N        0.79697    0.69380    0.97724    1.000
    Si5432   Si       0.83393    0.66646    0.98395    1.000
    N5433    N        0.85850    0.67240    0.87042    1.000
    N5434    N        0.76843    0.65395    0.92220    1.000
    Si5435   Si       0.95750    0.65590    0.96386    1.000
    N5436    N        0.97779    0.68873    0.98318    1.000
    N5437    N        0.95822    0.66426    0.92152    1.000
    Si5438   Si       0.76271    0.75542    0.06834    1.000
    N5439    N        0.82542    0.73186    0.04097    1.000
    N5440    N        0.78585    0.73627    0.10091    1.000
    N5441    N        0.75745    0.72397    0.03893    1.000
    Si5442   Si       0.79183    0.71923    0.01235    1.000
    Si5443   Si       0.80763    0.77120    0.11368    1.000
    Si5444   Si       0.90742    0.75114    0.08001    1.000
    N5445    N        0.94436    0.72937    0.08129    1.000
    Si5446   Si       0.97103    0.74882    0.10986    1.000
    N5447    N        0.97232    0.75368    0.01087    1.000
    N5448    N        0.88036    0.71900    0.07510    1.000
    N5449    N        0.83979    0.76349    0.24592    1.000
    Si5450   Si       0.80753    0.74304    0.22766    1.000
    Si5451   Si       0.85453    0.73373    0.16665    1.000
    N5452    N        0.82231    0.72330    0.19350    1.000
    N5453    N        0.77459    0.76854    0.23019    1.000
    N5454    N        0.83786    0.76777    0.14590    1.000
    Si5455   Si       0.87638    0.74534    0.23014    1.000
    N5456    N        0.95750    0.71895    0.21877    1.000
    Si5457   Si       0.97783    0.72063    0.18151    1.000
    N5458    N        0.95412    0.73406    0.14882    1.000
    N5459    N        0.89076    0.74698    0.18818    1.000
    N5460    N        0.90090    0.76411    0.12171    1.000
    Si5461   Si       0.92076    0.76022    0.16059    1.000
    N5462    N        0.84334    0.75005    0.31163    1.000
    Si5463   Si       0.76321    0.72557    0.35241    1.000
    Si5464   Si       0.81772    0.71525    0.32701    1.000
    N5465    N        0.74424    0.76247    0.35120    1.000
    N5466    N        0.77562    0.71252    0.31385    1.000
    N5467    N        0.80479    0.72770    0.36648    1.000
    Si5468   Si       0.88193    0.74584    0.33148    1.000
    N5469    N        0.95745    0.72472    0.28774    1.000
    Si5470   Si       0.95008    0.74722    0.25157    1.000
    N5471    N        0.91002    0.76251    0.25170    1.000
    Si5472   Si       0.81610    0.73656    0.40681    1.000
    N5473    N        0.77843    0.73111    0.42825    1.000
    Si5474   Si       0.75228    0.76460    0.44249    1.000
    N5475    N        0.93098    0.74881    0.47984    1.000
    Si5476   Si       0.93649    0.76106    0.41214    1.000
    N5477    N        0.92727    0.71769    0.41141    1.000
    N5478    N        0.86434    0.72283    0.48629    1.000
    Si5479   Si       0.97135    0.74224    0.46805    1.000
    N5480    N        0.87584    0.74459    0.37506    1.000
    N5481    N        0.97284    0.77356    0.43560    1.000
    N5482    N        0.82132    0.73940    0.53549    1.000
    Si5483   Si       0.83601    0.75258    0.57496    1.000
    Si5484   Si       0.78406    0.75558    0.51461    1.000
    N5485    N        0.80224    0.76293    0.60089    1.000
    Si5486   Si       0.84521    0.75968    0.50295    1.000
    Si5487   Si       0.76216    0.77077    0.58505    1.000
    N5488    N        0.77211    0.71576    0.50791    1.000
    N5489    N        0.86679    0.72936    0.59497    1.000
    N5490    N        0.94015    0.75212    0.60066    1.000
    N5491    N        0.90596    0.74419    0.54003    1.000
    Si5492   Si       0.91044    0.73168    0.58061    1.000
    Si5493   Si       0.90364    0.72003    0.50367    1.000
    N5494    N        0.97342    0.71289    0.54197    1.000
    Si5495   Si       0.82915    0.74580    0.70832    1.000
    N5496    N        0.78925    0.73380    0.72233    1.000
    N5497    N        0.83679    0.74118    0.66235    1.000
    Si5498   Si       0.76397    0.75136    0.69085    1.000
    N5499    N        0.74628    0.72094    0.66477    1.000
    Si5500   Si       0.86295    0.71849    0.63758    1.000
    N5501    N        0.86720    0.72574    0.71789    1.000
    Si5502   Si       0.96492    0.76929    0.70947    1.000
    Si5503   Si       0.89609    0.74634    0.69215    1.000
    N5504    N        0.90047    0.72953    0.65310    1.000
    Si5505   Si       0.94198    0.73848    0.64221    1.000
    N5506    N        0.93520    0.73531    0.71107    1.000
    Si5507   Si       0.82223    0.73255    0.80319    1.000
    N5508    N        0.82520    0.73466    0.84644    1.000
    N5509    N        0.75999    0.74631    0.84863    1.000
    Si5510   Si       0.84750    0.77065    0.85565    1.000
    N5511    N        0.73796    0.73980    0.77083    1.000
    Si5512   Si       0.77112    0.71261    0.75593    1.000
    N5513    N        0.86009    0.71861    0.78915    1.000
    N5514    N        0.98586    0.76675    0.74963    1.000
    N5515    N        0.92576    0.74466    0.78581    1.000
    Si5516   Si       0.89321    0.73691    0.81171    1.000
    Si5517   Si       0.96742    0.73969    0.77633    1.000
    N5518    N        0.90337    0.71666    0.84987    1.000
    Si5519   Si       0.83815    0.74765    0.92480    1.000
    Si5520   Si       0.77522    0.75689    0.94629    1.000
    N5521    N        0.75255    0.72071    0.93309    1.000
    N5522    N        0.85686    0.75621    0.96359    1.000
    N5523    N        0.79068    0.75838    0.98884    1.000
    N5524    N        0.81427    0.71283    0.91515    1.000
    N5525    N        0.91498    0.71799    0.98719    1.000
    Si5526   Si       0.90126    0.75364    0.96849    1.000
    N5527    N        0.91898    0.74980    0.92876    1.000
    Si5528   Si       0.90583    0.74745    0.88336    1.000
    N5529    N        0.86482    0.75946    0.89345    1.000
    N5530    N        0.98827    0.76717    0.92563    1.000
    N5531    N        0.78690    0.79022    0.05728    1.000
    N5532    N        0.84862    0.79109    0.01902    1.000
    N5533    N        0.84235    0.78484    0.08859    1.000
    Si5534   Si       0.82565    0.77459    0.04898    1.000
    Si5535   Si       0.74142    0.80798    0.11313    1.000
    Si5536   Si       0.76392    0.82780    0.05065    1.000
    Si5537   Si       0.76336    0.79435    0.99281    1.000
    Si5538   Si       0.94809    0.80797    0.06946    1.000
    Si5539   Si       0.88857    0.80500    0.02353    1.000
    N5540    N        0.96656    0.79206    0.10522    1.000
    N5541    N        0.91257    0.78684    0.05650    1.000
    N5542    N        0.98224    0.81454    0.04188    1.000
    N5543    N        0.77388    0.82406    0.18664    1.000
    N5544    N        0.78208    0.80171    0.12640    1.000
    Si5545   Si       0.75118    0.78741    0.19791    1.000
    Si5546   Si       0.91788    0.83268    0.17483    1.000
    Si5547   Si       0.86750    0.78918    0.12332    1.000
    N5548    N        0.89186    0.82410    0.13980    1.000
    N5549    N        0.97953    0.77836    0.24276    1.000
    Si5550   Si       0.98151    0.79393    0.19431    1.000
    N5551    N        0.94056    0.79439    0.18049    1.000
    N5552    N        0.79758    0.80069    0.29068    1.000
    Si5553   Si       0.76499    0.79614    0.26088    1.000
    Si5554   Si       0.83660    0.78272    0.28332    1.000
    N5555    N        0.86631    0.81257    0.27445    1.000
    Si5556   Si       0.91173    0.80640    0.35228    1.000
    Si5557   Si       0.90578    0.79418    0.28065    1.000
    Si5558   Si       0.97500    0.81980    0.25691    1.000
    N5559    N        0.93707    0.82420    0.27696    1.000
    N5560    N        0.90497    0.77828    0.32138    1.000
    N5561    N        0.76942    0.80384    0.43454    1.000
    Si5562   Si       0.81141    0.79924    0.44749    1.000
    N5563    N        0.80861    0.77700    0.48529    1.000
    N5564    N        0.83020    0.77501    0.41672    1.000
    N5565    N        0.93404    0.81972    0.47449    1.000
    N5566    N        0.94260    0.78589    0.37609    1.000
    Si5567   Si       0.97043    0.81767    0.45049    1.000
    Si5568   Si       0.86919    0.78099    0.39991    1.000
    Si5569   Si       0.90804    0.78514    0.47153    1.000
    Si5570   Si       0.97704    0.81326    0.37691    1.000
    N5571    N        0.90020    0.77869    0.42828    1.000
    N5572    N        0.87441    0.81450    0.37544    1.000
    Si5573   Si       0.83776    0.82262    0.58874    1.000
    N5574    N        0.85555    0.79130    0.56560    1.000
    N5575    N        0.76055    0.77873    0.54223    1.000
    N5576    N        0.74360    0.80369    0.60675    1.000
    Si5577   Si       0.74453    0.80580    0.51152    1.000
    N5578    N        0.92508    0.80558    0.55963    1.000
    N5579    N        0.97620    0.81151    0.60657    1.000
    Si5580   Si       0.89175    0.78737    0.54170    1.000
    Si5581   Si       0.95765    0.78257    0.57708    1.000
    N5582    N        0.87472    0.79126    0.50077    1.000
    N5583    N        0.83852    0.80927    0.63000    1.000
    Si5584   Si       0.79134    0.81596    0.70306    1.000
    N5585    N        0.78740    0.78417    0.67254    1.000
    N5586    N        0.83187    0.78157    0.73279    1.000
    N5587    N        0.76715    0.80207    0.73747    1.000
    Si5588   Si       0.86205    0.81153    0.71912    1.000
    Si5589   Si       0.81690    0.77409    0.63988    1.000
    Si5590   Si       0.98748    0.78961    0.64126    1.000
    N5591    N        0.88756    0.78824    0.69510    1.000
    N5592    N        0.95152    0.77638    0.66313    1.000
    N5593    N        0.94582    0.80609    0.71832    1.000
    Si5594   Si       0.92368    0.80534    0.68143    1.000
    Si5595   Si       0.80376    0.79584    0.76289    1.000
    N5596    N        0.75431    0.80731    0.83799    1.000
    Si5597   Si       0.78847    0.77879    0.83618    1.000
    N5598    N        0.81650    0.79794    0.86438    1.000
    N5599    N        0.80669    0.77153    0.79716    1.000
    Si5600   Si       0.96089    0.80779    0.85768    1.000
    Si5601   Si       0.89607    0.80799    0.80520    1.000
    N5602    N        0.93662    0.81543    0.82073    1.000
    N5603    N        0.88447    0.81976    0.76182    1.000
    N5604    N        0.87582    0.77385    0.82601    1.000
    Si5605   Si       0.80592    0.81324    0.90349    1.000
    Si5606   Si       0.82762    0.78369    0.98289    1.000
    N5607    N        0.80078    0.81855    0.98782    1.000
    N5608    N        0.80767    0.77898    0.93017    1.000
    N5609    N        0.74463    0.78670    0.95474    1.000
    N5610    N        0.76538    0.82864    0.90816    1.000
    Si5611   Si       0.92298    0.83084    0.97068    1.000
    N5612    N        0.93608    0.77834    0.87738    1.000
    N5613    N        0.93914    0.82043    0.93278    1.000
    N5614    N        0.90922    0.79405    0.98700    1.000
    Si5615   Si       0.94816    0.77969    0.91976    1.000
    N5616    N        0.79214    0.86458    0.04177    1.000
    Si5617   Si       0.79829    0.86119    0.99790    1.000
    N5618    N        0.74008    0.83957    0.08408    1.000
    Si5619   Si       0.74161    0.87574    0.10688    1.000
    N5620    N        0.86459    0.87315    0.09425    1.000
    Si5621   Si       0.89669    0.86595    0.06501    1.000
    N5622    N        0.88461    0.84793    0.02771    1.000
    N5623    N        0.93341    0.84806    0.07710    1.000
    Si5624   Si       0.98463    0.85519    0.02639    1.000
    Si5625   Si       0.95377    0.88819    0.07863    1.000
    N5626    N        0.77444    0.87087    0.13436    1.000
    Si5627   Si       0.74625    0.84781    0.21577    1.000
    N5628    N        0.83333    0.85051    0.15773    1.000
    N5629    N        0.83622    0.86473    0.22436    1.000
    Si5630   Si       0.79411    0.83651    0.14893    1.000
    N5631    N        0.76786    0.88727    0.21588    1.000
    Si5632   Si       0.79751    0.87391    0.24370    1.000
    Si5633   Si       0.84730    0.88356    0.18674    1.000
    N5634    N        0.89871    0.84835    0.21117    1.000
    N5635    N        0.98008    0.83377    0.21776    1.000
    Si5636   Si       0.86760    0.85810    0.13423    1.000
    Si5637   Si       0.97511    0.87340    0.20315    1.000
    Si5638   Si       0.91437    0.88992    0.19919    1.000
    N5639    N        0.94709    0.86704    0.17085    1.000
    Si5640   Si       0.97525    0.88582    0.14077    1.000
    N5641    N        0.88558    0.88793    0.16026    1.000
    Si5642   Si       0.78316    0.84083    0.29807    1.000
    N5643    N        0.76438    0.84623    0.33462    1.000
    N5644    N        0.76681    0.84015    0.25394    1.000
    N5645    N        0.80665    0.87663    0.28522    1.000
    N5646    N        0.85035    0.88075    0.34041    1.000
    Si5647   Si       0.74120    0.85797    0.36745    1.000
    N5648    N        0.89207    0.87612    0.27428    1.000
    N5649    N        0.91130    0.84985    0.33669    1.000
    Si5650   Si       0.92537    0.86217    0.29832    1.000
    Si5651   Si       0.87897    0.85898    0.36406    1.000
    N5652    N        0.97778    0.84506    0.34839    1.000
    N5653    N        0.96120    0.88600    0.29412    1.000
    Si5654   Si       0.87032    0.84727    0.24626    1.000
    N5655    N        0.82923    0.83738    0.44692    1.000
    Si5656   Si       0.75118    0.87681    0.48592    1.000
    N5657    N        0.76525    0.86845    0.40079    1.000
    Si5658   Si       0.82547    0.87128    0.47267    1.000
    Si5659   Si       0.74747    0.83708    0.42403    1.000
    Si5660   Si       0.97525    0.87761    0.39234    1.000
    N5661    N        0.97178    0.83854    0.41226    1.000
    N5662    N        0.92039    0.88467    0.45391    1.000
    Si5663   Si       0.92909    0.86041    0.49060    1.000
    N5664    N        0.87408    0.88573    0.39939    1.000
    N5665    N        0.83452    0.86130    0.51271    1.000
    Si5666   Si       0.79824    0.85763    0.53853    1.000
    N5667    N        0.76367    0.84448    0.51326    1.000
    Si5668   Si       0.76523    0.84191    0.60269    1.000
    N5669    N        0.85380    0.86206    0.57715    1.000
    N5670    N        0.73963    0.87400    0.58745    1.000
    N5671    N        0.79695    0.83366    0.57334    1.000
    Si5672   Si       0.86875    0.87654    0.53864    1.000
    N5673    N        0.90843    0.86406    0.52831    1.000
    N5674    N        0.93336    0.86800    0.59269    1.000
    Si5675   Si       0.93614    0.84815    0.55585    1.000
    N5676    N        0.97783    0.84342    0.54855    1.000
    N5677    N        0.96879    0.88053    0.49311    1.000
    N5678    N        0.76636    0.85493    0.70398    1.000
    Si5679   Si       0.82833    0.84481    0.65465    1.000
    N5680    N        0.79323    0.85884    0.63496    1.000
    N5681    N        0.83147    0.83172    0.69539    1.000
    Si5682   Si       0.89985    0.86980    0.66838    1.000
    N5683    N        0.89827    0.85815    0.71135    1.000
    N5684    N        0.86117    0.87133    0.64599    1.000
    N5685    N        0.92890    0.83885    0.65481    1.000
    Si5686   Si       0.95776    0.84706    0.62326    1.000
    Si5687   Si       0.92033    0.83416    0.74038    1.000
    N5688    N        0.75517    0.86034    0.79741    1.000
    Si5689   Si       0.75123    0.84936    0.84002    1.000
    Si5690   Si       0.79227    0.87144    0.77986    1.000
    N5691    N        0.78283    0.87153    0.86138    1.000
    N5692    N        0.81727    0.83762    0.77259    1.000
    Si5693   Si       0.85764    0.85123    0.77819    1.000
    N5694    N        0.87057    0.84257    0.81789    1.000
    Si5695   Si       0.87769    0.87098    0.85060    1.000
    N5696    N        0.94611    0.85593    0.76722    1.000
    Si5697   Si       0.94082    0.85967    0.81136    1.000
    N5698    N        0.98330    0.86998    0.81709    1.000
    Si5699   Si       0.98286    0.88015    0.86048    1.000
    Si5700   Si       0.98822    0.86781    0.77483    1.000
    N5701    N        0.86962    0.88958    0.76391    1.000
    N5702    N        0.91467    0.88714    0.83206    1.000
    Si5703   Si       0.78022    0.87209    0.90671    1.000
    N5704    N        0.76015    0.87520    0.97750    1.000
    N5705    N        0.82279    0.85127    0.91779    1.000
    N5706    N        0.83177    0.88882    0.99109    1.000
    Si5707   Si       0.86322    0.86609    0.92205    1.000
    Si5708   Si       0.97002    0.88546    0.96252    1.000
    N5709    N        0.95520    0.85448    0.99268    1.000
    N5710    N        0.88245    0.84847    0.95974    1.000
    N5711    N        0.95959    0.84577    0.87540    1.000
    Si5712   Si       0.87306    0.87336    0.99505    1.000
    N5713    N        0.93895    0.89198    0.93277    1.000
    Si5714   Si       0.93272    0.85481    0.90853    1.000
    N5715    N        0.89164    0.85849    0.88975    1.000
    N5716    N        0.81060    0.91786    0.09711    1.000
    Si5717   Si       0.82756    0.92634    0.01467    1.000
    N5718    N        0.78776    0.93291    0.02908    1.000
    N5719    N        0.74794    0.90761    0.07930    1.000
    Si5720   Si       0.78591    0.90419    0.06210    1.000
    Si5721   Si       0.85196    0.91470    0.08805    1.000
    N5722    N        0.85723    0.92366    0.04432    1.000
    Si5723   Si       0.89928    0.92926    0.03013    1.000
    N5724    N        0.91832    0.90299    0.05680    1.000
    N5725    N        0.87697    0.94003    0.11558    1.000
    N5726    N        0.94359    0.90554    0.11722    1.000
    N5727    N        0.98507    0.89515    0.04817    1.000
    N5728    N        0.82368    0.91505    0.16985    1.000
    Si5729   Si       0.79419    0.91152    0.13811    1.000
    Si5730   Si       0.75949    0.92577    0.19730    1.000
    N5731    N        0.75932    0.93312    0.15432    1.000
    N5732    N        0.94754    0.89659    0.22741    1.000
    N5733    N        0.88347    0.91656    0.21929    1.000
    Si5734   Si       0.90862    0.91991    0.13890    1.000
    N5735    N        0.92143    0.93813    0.17380    1.000
    N5736    N        0.80272    0.92805    0.33536    1.000
    N5737    N        0.85144    0.92890    0.28547    1.000
    Si5738   Si       0.82729    0.90291    0.31008    1.000
    N5739    N        0.73888    0.92637    0.29111    1.000
    Si5740   Si       0.88577    0.91777    0.26203    1.000
    Si5741   Si       0.95822    0.91822    0.26584    1.000
    N5742    N        0.92147    0.93971    0.27192    1.000
    N5743    N        0.87480    0.94584    0.36755    1.000
    Si5744   Si       0.84716    0.91264    0.37220    1.000
    Si5745   Si       0.78192    0.90205    0.42026    1.000
    N5746    N        0.81555    0.92076    0.39879    1.000
    N5747    N        0.75476    0.93417    0.40715    1.000
    N5748    N        0.85647    0.90321    0.46721    1.000
    N5749    N        0.78517    0.88668    0.46102    1.000
    Si5750   Si       0.95754    0.90689    0.45971    1.000
    N5751    N        0.94175    0.90651    0.38449    1.000
    Si5752   Si       0.88638    0.90139    0.43619    1.000
    N5753    N        0.90163    0.94182    0.43013    1.000
    Si5754   Si       0.97460    0.94024    0.37148    1.000
    Si5755   Si       0.91244    0.93831    0.38878    1.000
    N5756    N        0.95566    0.94742    0.47211    1.000
    Si5757   Si       0.81456    0.93015    0.53871    1.000
    N5758    N        0.78758    0.89881    0.54510    1.000
    Si5759   Si       0.74502    0.90174    0.55314    1.000
    N5760    N        0.85834    0.92179    0.53911    1.000
    N5761    N        0.82451    0.92131    0.61231    1.000
    Si5762   Si       0.85680    0.89245    0.60856    1.000
    Si5763   Si       0.85857    0.93742    0.49552    1.000
    N5764    N        0.96287    0.93010    0.60014    1.000
    N5765    N        0.89032    0.92047    0.59896    1.000
    Si5766   Si       0.92856    0.90559    0.61214    1.000
    Si5767   Si       0.88163    0.94816    0.56815    1.000
    Si5768   Si       0.77945    0.89525    0.71078    1.000
    N5769    N        0.75432    0.91882    0.63775    1.000
    N5770    N        0.80708    0.90889    0.67913    1.000
    Si5771   Si       0.79243    0.90277    0.63853    1.000
    N5772    N        0.74888    0.92868    0.70981    1.000
    Si5773   Si       0.83417    0.93902    0.69425    1.000
    Si5774   Si       0.74073    0.94429    0.66905    1.000
    N5775    N        0.87457    0.92404    0.70316    1.000
    N5776    N        0.93139    0.91965    0.72513    1.000
    Si5777   Si       0.89321    0.89683    0.73026    1.000
    N5778    N        0.92202    0.90650    0.65702    1.000
    Si5779   Si       0.91328    0.93512    0.68660    1.000
    Si5780   Si       0.97297    0.92971    0.73237    1.000
    Si5781   Si       0.80837    0.90400    0.84942    1.000
    Si5782   Si       0.83422    0.91618    0.77309    1.000
    N5783    N        0.84803    0.89961    0.86478    1.000
    N5784    N        0.79046    0.94099    0.86258    1.000
    N5785    N        0.81458    0.89564    0.80818    1.000
    N5786    N        0.79964    0.89905    0.74813    1.000
    Si5787   Si       0.92782    0.92569    0.84837    1.000
    Si5788   Si       0.75090    0.90923    0.95122    1.000
    N5789    N        0.79431    0.91591    0.92923    1.000
    Si5790   Si       0.83005    0.92871    0.94882    1.000
    N5791    N        0.75379    0.94862    0.96810    1.000
    Si5792   Si       0.86133    0.93120    0.89118    1.000
    N5793    N        0.74126    0.89163    0.90961    1.000
    N5794    N        0.96417    0.91728    0.87021    1.000
    N5795    N        0.98133    0.92187    0.98486    1.000
    Si5796   Si       0.90640    0.91450    0.95027    1.000
    N5797    N        0.90086    0.94146    0.87994    1.000
    Si5798   Si       0.98525    0.94610    0.89446    1.000
    N5799    N        0.86641    0.90891    0.92985    1.000
    N5800    N        0.89852    0.90732    0.99232    1.000
    Si5801   Si       0.76284    0.96256    0.00874    1.000
    N5802    N        0.77797    0.00167    0.99908    1.000
    N5803    N        0.91870    0.96655    0.02492    1.000
    Si5804   Si       0.94194    0.98806    0.05514    1.000
    Si5805   Si       0.88304    0.98303    0.10951    1.000
    N5806    N        0.92428    0.98888    0.09462    1.000
    N5807    N        0.98236    0.96641    0.05266    1.000
    N5808    N        0.78996    0.95428    0.21137    1.000
    N5809    N        0.82105    0.98535    0.14990    1.000
    Si5810   Si       0.82431    0.95694    0.18273    1.000
    N5811    N        0.85680    0.97850    0.20118    1.000
    Si5812   Si       0.78327    0.98425    0.24285    1.000
    N5813    N        0.74083    0.99259    0.24500    1.000
    Si5814   Si       0.89585    0.95700    0.20222    1.000
    N5815    N        0.96700    0.98986    0.15369    1.000
    N5816    N        0.92637    0.98384    0.21729    1.000
    Si5817   Si       0.95505    0.96543    0.18849    1.000
    N5818    N        0.89469    0.00258    0.14712    1.000
    N5819    N        0.84096    0.99193    0.32872    1.000
    N5820    N        0.79495    0.96826    0.28331    1.000
    Si5821   Si       0.83859    0.97148    0.28989    1.000
    N5822    N        0.75141    0.95969    0.35031    1.000
    Si5823   Si       0.74198    0.00066    0.36291    1.000
    Si5824   Si       0.76980    0.94841    0.31145    1.000
    N5825    N        0.87043    0.99054    0.26836    1.000
    Si5826   Si       0.87883    0.98502    0.34825    1.000
    Si5827   Si       0.91247    0.98140    0.27785    1.000
    N5828    N        0.91159    0.98089    0.32156    1.000
    Si5829   Si       0.94921    0.98691    0.33962    1.000
    N5830    N        0.97749    0.95666    0.33260    1.000
    Si5831   Si       0.78792    0.94851    0.37545    1.000
    N5832    N        0.74142    0.00387    0.40574    1.000
    N5833    N        0.77825    0.97786    0.45073    1.000
    Si5834   Si       0.79667    0.98112    0.48851    1.000
    N5835    N        0.79966    0.98945    0.38296    1.000
    Si5836   Si       0.91762    0.96704    0.46104    1.000
    N5837    N        0.91780    0.00676    0.44109    1.000
    N5838    N        0.88303    0.96994    0.48672    1.000
    N5839    N        0.94205    0.97209    0.37946    1.000
    N5840    N        0.79697    0.96402    0.55733    1.000
    Si5841   Si       0.79132    0.00099    0.57731    1.000
    N5842    N        0.85964    0.98019    0.58976    1.000
    N5843    N        0.80193    0.99361    0.61763    1.000
    Si5844   Si       0.83333    0.96244    0.61913    1.000
    N5845    N        0.81619    0.94535    0.49931    1.000
    N5846    N        0.95219    0.00185    0.57595    1.000
    N5847    N        0.91820    0.95719    0.55100    1.000
    Si5848   Si       0.95815    0.95881    0.56974    1.000
    Si5849   Si       0.92416    0.99984    0.54230    1.000
    Si5850   Si       0.97723    0.97532    0.49978    1.000
    N5851    N        0.94757    0.00617    0.50672    1.000
    N5852    N        0.98750    0.95733    0.53877    1.000
    N5853    N        0.76554    0.98201    0.67882    1.000
    N5854    N        0.81261    0.96340    0.72259    1.000
    N5855    N        0.84432    0.96602    0.66133    1.000
    Si5856   Si       0.76887    0.96766    0.71870    1.000
    Si5857   Si       0.85211    0.00522    0.67952    1.000
    Si5858   Si       0.97473    0.98174    0.67960    1.000
    N5859    N        0.93165    0.97271    0.68337    1.000
    N5860    N        0.86686    0.00557    0.72203    1.000
    N5861    N        0.84516    0.95772    0.78026    1.000
    Si5862   Si       0.83570    0.98710    0.75106    1.000
    N5863    N        0.75287    0.99543    0.74556    1.000
    Si5864   Si       0.95421    0.98227    0.79035    1.000
    N5865    N        0.97502    0.96538    0.75754    1.000
    Si5866   Si       0.97261    0.00013    0.85652    1.000
    N5867    N        0.98458    0.00201    0.81402    1.000
    N5868    N        0.93936    0.95020    0.81512    1.000
    N5869    N        0.83362    0.96027    0.91208    1.000
    N5870    N        0.76387    0.98478    0.91211    1.000
    N5871    N        0.82968    0.95501    0.98228    1.000
    Si5872   Si       0.81885    0.99721    0.98749    1.000
    Si5873   Si       0.84383    0.00277    0.91551    1.000
    Si5874   Si       0.79091    0.95367    0.90424    1.000
    N5875    N        0.95690    0.98025    0.89641    1.000
    N5876    N        0.91564    0.95779    0.94901    1.000
    N5877    N        0.88649    0.00107    0.90561    1.000
    Si5878   Si       0.91702    0.97035    0.90839    1.000
    Si5879   Si       0.92093    0.98063    0.98379    1.000
